pglib_opf_case13659_pegase/pglib_opf_case13659_pegase_10regions.m
% -------------------------------------------------------------------------
% Partitioned MATPOWER Case File
% Copyright (c) 2025 Milad Hasanzadeh
% Generated on: 2026-05-23
% This file contains partitioned data for 10 regions


% -------------------- mpc_regionR1 --------------------

mpc_regionR1.version = '2';
mpc_regionR1.baseMVA = 100.0000;
mpc_regionR1.bus = [
%	bus_i       type        Pd          Qd          Gs          Bs          area        Vm          Va          baseKV      zone        Vmax        Vmin        
	 1	 1	 59.67	 26.7	 0	 12.84	 0	 1	 0	 220	 4	 1.1	 0.9;
	 2	 2	 0	 0	 0	 0	 0	 1	 0	 20	 4	 1.1	 0.9;
	 3	 1	 0	-0	 0	 37.54	 0	 1	 0	 220	 4	 1.1	 0.9;
	 4	 1	 0	-0	 0	 0.25	 0	 1	 0	 220	 4	 1.1	 0.9;
	 5	 2	 0	 0	 0	 0	 0	 1	 0	 20	 4	 1.1	 0.9;
	 6	 1	-0	 0	 0.019959	 0.320041	 0	 1	 0	 150	 10	 1.1	 0.9;
	 7	 1	 20.82	 7.9	 0	 26.89	 0	 1	 0	 380	 4	 1.1	 0.9;
	 8	 1	 151.8	 48.3	 0	 5.53	 0	 1	 0	 220	 4	 1.1	 0.9;
	 9	 2	 0	 0	 0	 0	 0	 1	 0	 20	 4	 1.1	 0.9;
	 10	 2	 0	 0	 0	 0	 0	 1	 0	 20	 4	 1.1	 0.9;
	 11	 2	 0	 0	 0	 0	 0	 1	 0	 20	 4	 1.1	 0.9;
	 12	 2	 0	 0	 0	 0	 0	 1	 0	 20	 4	 1.1	 0.9;
	 13	 2	 0	 0	 0	 0	 0	 1	 0	 20	 4	 1.1	 0.9;
	 14	 2	 0	 0	 0	 0	 0	 1	 0	 20	 4	 1.1	 0.9;
	 15	 2	 0	 0	 0	 0	 0	 1	 0	 20	 4	 1.1	 0.9;
	 16	 2	 0	 0	 0	 0	 0	 1	 0	 20	 4	 1.1	 0.9;
	 17	 2	 0	 0	 0	 0	 0	 1	 0	 20	 4	 1.1	 0.9;
	 18	 1	 6.91	-4.6	 0	 5.75	 0	 1	 0	 220	 4	 1.1	 0.9;
	 19	 1	 38.74	 6.1	 0	 1.17	 0	 1	 0	 220	 4	 1.1	 0.9;
	 20	 2	 0	 0	 0	 0	 0	 1	 0	 20	 4	 1.1	 0.9;
	 21	 2	 0	 0	 0	 0	 0	 1	 0	 20	 10	 1.1	 0.9;
	 22	 1	 0	-0	 0	 0.73	 0	 1	 0	 220	 4	 1.1	 0.9;
	 23	 2	 0	 0	 0	 0	 0	 1	 0	 20	 4	 1.1	 0.9;
	 24	 2	 0	 0	 0	 0	 0	 1	 0	 20	 4	 1.1	 0.9;
	 25	 2	 0	 0	 0	 0	 0	 1	 0	 20	 4	 1.1	 0.9;
	 26	 2	 0	 0	 0	 0	 0	 1	 0	 20	 4	 1.1	 0.9;
	 27	 1	 0	-0	 0.135375	 47.750675	 0	 1	 0	 380	 10	 1.1	 0.9;
	 28	 1	-0	 0	 0	 0	 0	 1	 0	 20	 4	 1.1	 0.9;
	 29	 1	-0	-0	 0	 21.39	 0	 1	 0	 380	 1	 1.1	 0.9;
	 30	 1	-75.38	 7.8	 0	 29.9	 0	 1	 0	 380	 10	 1.1	 0.9;
	 31	 2	 0	 0	 0	 0	 0	 1	 0	 20	 4	 1.1	 0.9;
	 32	 1	 2.8	 264.7	 0.529803	 56.537931	 0	 1	 0	 380	 4	 1.1	 0.9;
	 33	 1	 0	-0	 0	 20.96	 0	 1	 0	 220	 4	 1.1	 0.9;
	 34	 1	 111.7	 10.96	 0	 4.22	 0	 1	 0	 220	 4	 1.1	 0.9;
	 35	 2	 0	 0	 0	 0	 0	 1	 0	 20	 4	 1.1	 0.9;
	 36	 1	 55.46	 8.4	 0	 5	 0	 1	 0	 220	 4	 1.1	 0.9;
	 37	 1	 94.9	 36.2	 0	 16.46	 0	 1	 0	 220	 10	 1.1	 0.9;
	 38	 1	 210.4	 159.2	 0.100208	 131.579896	 0	 1	 0	 380	 4	 1.1	 0.9;
	 39	 1	 44.35	 5.1	 0	 4	 0	 1	 0	 220	 4	 1.1	 0.9;
	 40	 1	 50.56	 5.9	 0	 10.58	 0	 1	 0	 220	 4	 1.1	 0.9;
	 41	 1	 0	 0	 0	 4.73	 0	 1	 0	 220	 4	 1.1	 0.9;
	 42	 1	 55.46	 15.7	 0	 13.46	 0	 1	 0	 220	 4	 1.1	 0.9;
	 43	 2	 0	 0	 0	 0	 0	 1	 0	 20	 4	 1.1	 0.9;
	 44	 1	 0	-0	 0	 0	 0	 1	 0	 20	 4	 1.1	 0.9;
	 45	 2	 0	 0	 0	 0	 0	 1	 0	 20	 4	 1.1	 0.9;
	 46	 1	 0	-0	 0	 0	 0	 1	 0	 20	 4	 1.1	 0.9;
	 47	 2	 0	 0	 0	 0	 0	 1	 0	 20	 4	 1.1	 0.9;
	 48	 1	-0	 0	 0	 0	 0	 1	 0	 20	 4	 1.1	 0.9;
	 49	 1	 45.05	-2.2	 0	 3.96	 0	 1	 0	 220	 4	 1.1	 0.9;
	 50	 1	 152.07	 22.52	 0	 7.87	 0	 1	 0	 220	 4	 1.1	 0.9;
	 51	 2	 0	 0	 0	 0	 0	 1	 0	 20	 4	 1.1	 0.9;
	 52	 2	 0	 0	 0	 0	 0	 1	 0	 20	 4	 1.1	 0.9;
	 53	 1	 45.85	 7	 0	 1.05	 0	 1	 0	 220	 4	 1.1	 0.9;
	 54	 2	 0	 0	 0	 0	 0	 1	 0	 20	 4	 1.1	 0.9;
	 55	 2	 0	 0	 0	 0	 0	 1	 0	 20	 4	 1.1	 0.9;
	 56	 2	 0	 0	 0	 0	 0	 1	 0	 20	 4	 1.1	 0.9;
	 57	 2	 0	 0	 0	 0	 0	 1	 0	 20	 4	 1.1	 0.9;
	 58	 2	 0	 0	 0	 0	 0	 1	 0	 20	 4	 1.1	 0.9;
	 59	 2	 0	 0	 0	 0	 0	 1	 0	 20	 4	 1.1	 0.9;
	 60	 2	 0	 0	 0	 0	 0	 1	 0	 20	 4	 1.1	 0.9;
	 61	 1	-0	 0	 0	 26.3	 0	 1	 0	 220	 4	 1.1	 0.9;
	 62	 1	 113.9	 24.5	 0	 6.72	 0	 1	 0	 220	 4	 1.1	 0.9;
	 63	 1	 0	-0	 0	 1.29	 0	 1	 0	 380	 10	 1.1	 0.9;
	 64	 1	 126.8	 21.4	 0	 11.43	 0	 1	 0	 220	 4	 1.1	 0.9;
	 65	 1	 38.74	 9	 0	 0.57	 0	 1	 0	 220	 4	 1.1	 0.9;
	 66	 1	 103.8	 2.7	 0	 3.33	 0	 1	 0	 220	 4	 1.1	 0.9;
	 67	 2	 0	 0	 0	 0	 0	 1	 0	 20	 4	 1.1	 0.9;
	 68	 1	 191.2	-3.4	 0	 19.21	 0	 1	 0	 220	 4	 1.1	 0.9;
	 69	 1	 228.1	 131.8	 0.95374	 3.934956	 0	 1	 0	 380	 4	 1.1	 0.9;
	 70	 1	 0	 0	 0	 109.27	 0	 1	 0	 380	 4	 1.1	 0.9;
	 71	 1	 0	-0	 0	 2.13	 0	 1	 0	 220	 10	 1.1	 0.9;
	 72	 1	-95.71	-2.8	 0	 7.25	 0	 1	 0	 220	 10	 1.1	 0.9;
	 73	 1	 0	-0	 0	 105.84	 0	 1	 0	 380	 4	 1.1	 0.9;
	 74	 1	-0	 0	 0.059384	 0.280616	 0	 1	 0	 150	 10	 1.1	 0.9;
	 75	 2	 0	 0	 0	 0	 0	 1	 0	 20	 4	 1.1	 0.9;
	 76	 1	-0	-0	 0	 0	 0	 1	 0	 20	 4	 1.1	 0.9;
	 77	 1	-0	-0	 0	 0	 0	 1	 0	 20	 4	 1.1	 0.9;
	 78	 1	 4.71	 0.7	 0	 11.39	 0	 1	 0	 220	 4	 1.1	 0.9;
	 79	 1	-0	 0	 0	 0	 0	 1	 0	 20	 4	 1.1	 0.9;
	 80	 1	-0	-0	 0	 1.24	 0	 1	 0	 380	 1	 1.1	 0.9;
	 81	 1	 26.93	-22.4	 0	 4.95	 0	 1	 0	 220	 4	 1.1	 0.9;
	 82	 2	 0	 0	 0	 0	 0	 1	 0	 20	 4	 1.1	 0.9;
	 83	 2	 0	 0	 0	 0	 0	 1	 0	 20	 4	 1.1	 0.9;
	 84	 1	-0	-0	 0.199768	 27.888516	 0	 1	 0	 380	 10	 1.1	 0.9;
	 85	 2	 0	 0	 0	 0	 0	 1	 0	 20	 4	 1.1	 0.9;
	 86	 1	 44.85	 7.1	 0	 5.65	 0	 1	 0	 220	 4	 1.1	 0.9;
	 87	 1	 36.74	 10.3	 0	 8.1	 0	 1	 0	 220	 4	 1.1	 0.9;
	 88	 2	 0	 0	 0	 0	 0	 1	 0	 20	 4	 1.1	 0.9;
	 89	 2	 0	 0	 0	 0	 0	 1	 0	 20	 4	 1.1	 0.9;
	 90	 1	-22.95	-3.72	 0	 14.34	 0	 1	 0	 220	 4	 1.1	 0.9;
	 91	 2	 0	 0	 0	 0	 0	 1	 0	 20	 4	 1.1	 0.9;
	 92	 1	-0	 0	 0	 70.37	 0	 1	 0	 380	 4	 1.1	 0.9;
	 93	 1	-0	-0	 0	 17.44	 0	 1	 0	 220	 4	 1.1	 0.9;
	 94	 1	 57.26	 15.6	 0	 3.43	 0	 1	 0	 220	 4	 1.1	 0.9;
	 95	 1	 115.9	 14.7	 0.019966	 2.9	 0	 1	 0	 220	 4	 1.1	 0.9;
	 96	 1	 77.29	 7	 0	 17.6	 0	 1	 0	 220	 4	 1.1	 0.9;
	 97	 1	 207.2	 9.4	 0	 8.77	 0	 1	 0	 220	 4	 1.1	 0.9;
	 98	 1	 277.7	 45.4	 0	 0.7	 0	 1	 0	 220	 4	 1.1	 0.9;
	 99	 2	 0	 0	 0	 0	 0	 1	 0	 20	 4	 1.1	 0.9;
	 100	 1	 87.8	-1.4	 0.079073	 36.047349	 0	 1	 0	 380	 10	 1.1	 0.9;
	 101	 1	 79.69	 39.6	 0	 18.83	 0	 1	 0	 380	 10	 1.1	 0.9;
	 102	 1	 0	-0	 0	 10	 0	 1	 0	 220	 4	 1.1	 0.9;
	 103	 2	 0	 0	 0	 0	 0	 1	 0	 20	 4	 1.1	 0.9;
	 104	 1	 180.8	 90.8	 0	 2.42	 0	 1	 0	 150	 10	 1.1	 0.9;
	 105	 2	 0	 0	 0	 0	 0	 1	 0	 20	 4	 1.1	 0.9;
	 106	 2	 0	 0	 0	 0	 0	 1	 0	 20	 4	 1.1	 0.9;
	 107	 2	 0	 0	 0	 0	 0	 1	 0	 20	 4	 1.1	 0.9;
	 108	 1	 0	-0	 0	 0	 0	 1	 0	 20	 4	 1.1	 0.9;
	 109	 2	 0	 0	 0	 0	 0	 1	 0	 20	 4	 1.1	 0.9;
	 110	 1	 0	 0	 0	 0	 0	 1	 0	 20	 4	 1.1	 0.9;
	 111	 2	 0	 0	 0	 0	 0	 1	 0	 20	 4	 1.1	 0.9;
	 112	 1	 17.32	 6.6	 0	 16.52	 0	 1	 0	 380	 4	 1.1	 0.9;
	 113	 1	 47.55	 5.3	 0	 7.59	 0	 1	 0	 220	 4	 1.1	 0.9;
	 114	 1	 33.34	 15.7	 0	 64.15	 0	 1	 0	 380	 4	 1.1	 0.9;
	 115	 1	 110.8	-8.8	 0	 3.15	 0	 1	 0	 220	 4	 1.1	 0.9;
	 116	 1	 0	-0	 0	 0.91	 0	 1	 0	 150	 10	 1.1	 0.9;
	 117	 1	 0.9	 74.1	 0.47996	 33.190034	 0	 1	 0	 380	 4	 1.1	 0.9;
	 118	 1	 21.42	 8.1	 0	 7.38	 0	 1	 0	 220	 4	 1.1	 0.9;
	 119	 1	 0	 0	 0.122539	 8.948096	 0	 1	 0	 220	 10	 1.1	 0.9;
	 120	 2	 0	 0	 0	 0	 0	 1	 0	 20	 4	 1.1	 0.9;
	 121	 2	 0	 0	 0	 0	 0	 1	 0	 20	 4	 1.1	 0.9;
	 122	 1	 40.94	 19.2	 0	 5.2	 0	 1	 0	 220	 4	 1.1	 0.9;
	 123	 1	-0	-0	 0	 4.74	 0	 1	 0	 380	 4	 1.1	 0.9;
	 124	 1	 0	 0	 0.058795	 0.011205	 0	 1	 0	 220	 10	 1.1	 0.9;
	 125	 1	 42.35	 13.1	 0.05007	 3.85993	 0	 1	 0	 220	 4	 1.1	 0.9;
	 126	 1	 0	-0	 0	 93.75	 0	 1	 0	 380	 4	 1.1	 0.9;
	 127	 1	 96.41	 26.5	 0	 0.08	 0	 1	 0	 220	 4	 1.1	 0.9;
	 128	 2	 0	 0	 0	 0	 0	 1	 0	 20	 10	 1.1	 0.9;
	 129	 1	 0	 0	 0.180903	 10.599297	 0	 1	 0	 220	 10	 1.1	 0.9;
	 130	 1	 36.54	 8.4	 0	 6.58	 0	 1	 0	 220	 4	 1.1	 0.9;
	 131	 1	 0	 0	 0	 0.48	 0	 1	 0	 150	 10	 1.1	 0.9;
	 132	 1	 114.8	 22.8	 0	 5.66	 0	 1	 0	 220	 4	 1.1	 0.9;
	 133	 1	 0	 0	 0.038515	 61.381485	 0	 1	 0	 380	 4	 1.1	 0.9;
	 134	 1	 76.38	 5.1	 0	 3.97	 0	 1	 0	 220	 4	 1.1	 0.9;
	 135	 2	 0	 0	 0	 0	 0	 1	 0	 20	 10	 1.1	 0.9;
	 136	 2	 0	 0	 0	 0	 0	 1	 0	 20	 4	 1.1	 0.9;
	 137	 1	-0	-0	 0	 0	 0	 1	 0	 20	 4	 1.1	 0.9;
	 138	 2	 0	 0	 0	 0	 0	 1	 0	 20	 4	 1.1	 0.9;
	 139	 2	 0	 0	 0	 0	 0	 1	 0	 20	 4	 1.1	 0.9;
	 140	 1	-0	 0	 0	 61.48	 0	 1	 0	 380	 4	 1.1	 0.9;
	 141	 1	 1.3	 59.6	 0.29248	 128.206266	 0	 1	 0	 380	 4	 1.1	 0.9;
	 142	 2	 0	 0	 0	 0	 0	 1	 0	 20	 10	 1.1	 0.9;
	 143	 1	 132.1	 32.4	 0	 58.29	 0	 1	 0	 380	 4	 1.1	 0.9;
	 144	 2	 0	 0	 0	 0	 0	 1	 0	 20	 4	 1.1	 0.9;
	 145	 2	 0	 0	 0	 0	 0	 1	 0	 20	 4	 1.1	 0.9;
	 146	 1	 0	 0	 0.040037	-3.7e-05	 0	 1	 0	 220	 10	 1.1	 0.9;
	 147	 1	 0	 0	 0	 4.03	 0	 1	 0	 220	 10	 1.1	 0.9;
	 148	 1	 2	 114.6	 0	 16.15	 0	 1	 0	 220	 4	 1.1	 0.9;
	 149	 2	 0	 0	 0	 0	 0	 1	 0	 20	 4	 1.1	 0.9;
	 150	 1	 222.5	 262.8	 1.155017	 156.145612	 0	 1	 0	 380	 4	 1.1	 0.9;
	 151	 1	 24.53	 8.6	 0	 7.01	 0	 1	 0	 220	 4	 1.1	 0.9;
	 152	 1	 287.7	 16.3	 0	 12.86	 0	 1	 0	 380	 4	 1.1	 0.9;
	 153	 1	 0	-0	 0.019624	 56.1	 0	 1	 0	 380	 4	 1.1	 0.9;
	 154	 1	 49.95	 7.5	 0	 8.86	 0	 1	 0	 220	 4	 1.1	 0.9;
	 155	 1	 94.2	 5.5	 0	 6.51	 0	 1	 0	 220	 4	 1.1	 0.9;
	 156	 1	 75.68	 18.4	 0.050059	 6.269941	 0	 1	 0	 220	 4	 1.1	 0.9;
	 157	 1	 0	 0	 0	 0	 0	 1	 0	 20	 4	 1.1	 0.9;
	 158	 1	 0	 0	 0	 1.32	 0	 1	 0	 150	 10	 1.1	 0.9;
	 159	 2	 0	 0	 0	 0	 0	 1	 0	 20	 4	 1.1	 0.9;
	 160	 2	 0	 0	 0	 0	 0	 1	 0	 20	 4	 1.1	 0.9;
	 161	 2	 0	 0	 0	 0	 0	 1	 0	 20	 4	 1.1	 0.9;
	 162	 1	 0.8	 18.6	 0.197474	 3.171894	 0	 1	 0	 220	 4	 1.1	 0.9;
	 163	 1	 43.75	 12.4	 0	 9.35	 0	 1	 0	 220	 4	 1.1	 0.9;
	 164	 1	 1.1	 61.2	 0.524876	 46.291763	 0	 1	 0	 380	 4	 1.1	 0.9;
	 165	 2	 0	 0	 0	 0	 0	 1	 0	 20	 4	 1.1	 0.9;
	 166	 2	 0	 0	 0	 0	 0	 1	 0	 20	 4	 1.1	 0.9;
	 167	 1	 77.59	 12.3	 0	 5.1	 0	 1	 0	 220	 4	 1.1	 0.9;
	 168	 1	-0	 0	 0	 6.66	 0	 1	 0	 220	 4	 1.1	 0.9;
	 169	 1	 90.7	 5.8	 0	 4.1	 0	 1	 0	 220	 4	 1.1	 0.9;
	 170	 1	 65.77	 16.1	 0	 1.66	 0	 1	 0	 220	 4	 1.1	 0.9;
	 171	 1	 42.55	 17.1	 0	 1.67	 0	 1	 0	 220	 4	 1.1	 0.9;
	 172	 2	 0	 0	 0	 0	 0	 1	 0	 20	 10	 1.1	 0.9;
	 173	 1	 62.27	-2.1	 0	 8.01	 0	 1	 0	 220	 4	 1.1	 0.9;
	 174	 1	 100.9	 2.9	 0.029966	 6.760034	 0	 1	 0	 220	 4	 1.1	 0.9;
	 175	 2	 0	 0	 0	 0	 0	 1	 0	 20	 4	 1.1	 0.9;
	 176	 1	 0	-0	 0.05054	 43.31946	 0	 1	 0	 380	 4	 1.1	 0.9;
	 177	 2	 0	 0	 0	 0	 0	 1	 0	 20	 4	 1.1	 0.9;
	 178	 1	 0	-0	 0	 0.84	 0	 1	 0	 220	 4	 1.1	 0.9;
	 179	 1	 13.8	 461.3	 1.731993	 405.420277	 0	 1	 0	 380	 4	 1.1	 0.9;
	 180	 1	 15.98	 0.86	 0	 5.96	 0	 1	 0	 220	 4	 1.1	 0.9;
	 181	 1	 0	-0	 0	 1.18	 0	 1	 0	 150	 10	 1.1	 0.9;
	 182	 1	-0	 0	 0	 8.62	 0	 1	 0	 220	 4	 1.1	 0.9;
	 183	 2	 0	 0	 0	 0	 0	 1	 0	 20	 4	 1.1	 0.9;
	 184	 1	 0	 0	 0	 1.8	 0	 1	 0	 220	 1	 1.1	 0.9;
	 185	 2	 0	 0	 0	 0	 0	 1	 0	 20	 4	 1.1	 0.9;
	 186	 1	 136.06	 40.4	 0	 12.08	 0	 1	 0	 220	 4	 1.1	 0.9;
	 187	 2	 0	 0	 0	 0	 0	 1	 0	 20	 4	 1.1	 0.9;
	 188	 2	 0	 0	 0	 0	 0	 1	 0	 20	 4	 1.1	 0.9;
	 189	 2	 0	 0	 0	 0	 0	 1	 0	 20	 4	 1.1	 0.9;
	 190	 2	 0	 0	 0	 0	 0	 1	 0	 20	 4	 1.1	 0.9;
	 191	 2	 0	 0	 0	 0	 0	 1	 0	 20	 4	 1.1	 0.9;
	 192	 2	 0	 0	 0	 0	 0	 1	 0	 20	 4	 1.1	 0.9;
	 193	 2	 0	 0	 0	 0	 0	 1	 0	 20	 4	 1.1	 0.9;
	 194	 1	 227.9	 36.1	 0.060304	 13.069696	 0	 1	 0	 220	 4	 1.1	 0.9;
	 195	 1	-0	-0	 0	 0.93	 0	 1	 0	 220	 4	 1.1	 0.9;
	 196	 2	 0	 0	 0	 0	 0	 1	 0	 20	 4	 1.1	 0.9;
	 197	 1	 241.4	-2.5	 0.224624	 31.280331	 0	 1	 0	 380	 10	 1.1	 0.9;
	 198	 1	 178.9	 9.1	 0	 15.71	 0	 1	 0	 220	 4	 1.1	 0.9;
	 199	 1	-34.54	 2.7	 0.078778	 9.951222	 0	 1	 0	 220	 4	 1.1	 0.9;
	 200	 1	-0	-0	 0.173429	 1.295476	 0	 1	 0	 220	 10	 1.1	 0.9;
...
];

mpc_regionR1.gen = [
%	bus         Pg          Qg          Qmax        Qmin        Vg          mBase       status      Pmax        Pmin        Pc1         Pc2         Qc1min      Qc1max      Qc2min      Qc2max      ramp_agc    ramp_10     ramp_30     ramp_q      apf         
	 2	 58.45	 15	 40	-10	 1	 100	 1	 100	 16.9;
	 5	 250	 60	 160	-40	 1	 100	 1	 400	 100;
	 9	 117.905	 15	 40	-10	 1	 100	 1	 200	 35.81;
	 10	 117.905	 15	 40	-10	 1	 100	 1	 200	 35.81;
	 11	 66.475	 15	 40	-10	 1	 100	 1	 100	 32.95;
	 12	 66.475	 15	 40	-10	 1	 100	 1	 100	 32.95;
	 13	 66.475	 15	 40	-10	 1	 100	 1	 100	 32.95;
	 14	 57.95	 15	 40	-10	 1	 100	 1	 100	 15.9;
	 15	 57.95	 15	 40	-10	 1	 100	 1	 100	 15.9;
	 16	 66.475	 15	 40	-10	 1	 100	 1	 100	 32.95;
	 17	 66.475	 15	 40	-10	 1	 100	 1	 100	 32.95;
	 20	 64.115	 15	 40	-10	 1	 100	 1	 100	 28.23;
	 21	 57.45	 10	 30	-10	 1	 100	 1	 100	 14.9;
	 23	 65.18	 15	 40	-10	 1	 100	 1	 100	 30.36;
	 24	 64.115	 15	 40	-10	 1	 100	 1	 100	 28.23;
	 25	 64.115	 15	 40	-10	 1	 100	 1	 100	 28.23;
	 26	 131.675	 20	 60	-20	 1	 100	 1	 200	 63.35;
	 31	 300	 60	 160	-40	 1	 100	 1	 500	 100;
	 35	 250	 60	 160	-40	 1	 100	 1	 400	 100;
	 43	 63.325	 10	 30	-10	 1	 100	 1	 100	 26.65;
	 45	 55.36	 0	 10	-10	 1	 100	 1	 100	 10.72;
	 47	 55.36	 0	 10	-10	 1	 100	 1	 100	 10.72;
	 51	 450	 80	 210	-50	 1	 100	 1	 700	 200;
	 52	 450	 80	 210	-50	 1	 100	 1	 700	 200;
	 54	 128.04	 20	 60	-20	 1	 100	 1	 200	 56.08;
	 55	 128.04	 20	 60	-20	 1	 100	 1	 200	 56.08;
	 56	 128.04	 20	 60	-20	 1	 100	 1	 200	 56.08;
	 57	 128.04	 20	 60	-20	 1	 100	 1	 200	 56.08;
	 58	 51.75	 0	 10	-10	 1	 100	 1	 100	 3.5;
	 59	 128.04	 20	 60	-20	 1	 100	 1	 200	 56.08;
	 60	 128.04	 20	 60	-20	 1	 100	 1	 200	 56.08;
	 67	 61.64	 10	 30	-10	 1	 100	 1	 100	 23.28;
	 75	 54.46	 0	 10	-10	 1	 100	 1	 100	 8.92;
	 82	 58.405	 10	 30	-10	 1	 100	 1	 100	 16.81;
	 83	 450	 80	 210	-50	 1	 100	 1	 700	 200;
	 85	 450	 80	 210	-50	 1	 100	 1	 700	 200;
	 88	 61.07	 10	 30	-10	 1	 100	 1	 100	 22.14;
	 89	 350	 60	 160	-40	 1	 100	 1	 600	 100;
	 91	 58.905	 5	 20	-10	 1	 100	 1	 100	 17.81;
	 99	 55.425	 10	 30	-10	 1	 100	 1	 100	 10.85;
	 103	 60.435	 5	 20	-10	 1	 100	 1	 100	 20.87;
	 105	 1300	 200	 520	-120	 1	 100	 1	 2000	 600;
	 106	 130.895	 20	 60	-20	 1	 100	 1	 200	 61.79;
	 107	 56.385	 5	 20	-10	 1	 100	 1	 100	 12.77;
	 109	 52.515	 0	 10	-10	 1	 100	 1	 100	 5.03;
	 111	 132.01	 20	 60	-20	 1	 100	 1	 200	 64.02;
	 120	 350	 60	 160	-40	 1	 100	 1	 600	 100;
	 121	 300	 60	 160	-40	 1	 100	 1	 500	 100;
	 128	 61.99	 10	 30	-10	 1	 100	 1	 100	 23.98;
	 135	 116.975	 15	 40	-10	 1	 100	 1	 200	 33.95;
	 136	 51.75	 0	 10	-10	 1	 100	 1	 100	 3.5;
	 138	 52.845	 0	 10	-10	 1	 100	 1	 100	 5.69;
	 139	 61.64	 10	 30	-10	 1	 100	 1	 100	 23.28;
	 142	 57.67	 10	 30	-10	 1	 100	 1	 100	 15.34;
	 144	 61.64	 10	 30	-10	 1	 100	 1	 100	 23.28;
	 145	 183.47	 20	 60	-20	 1	 100	 1	 300	 66.94;
	 149	 53	 0	 10	-10	 1	 100	 1	 100	 6;
	 159	 118.75	 15	 40	-10	 1	 100	 1	 200	 37.5;
	 160	 300	 60	 160	-40	 1	 100	 1	 500	 100;
	 161	 132.01	 20	 60	-20	 1	 100	 1	 200	 64.02;
	 165	 131.675	 20	 60	-20	 1	 100	 1	 200	 63.35;
	 166	 127.105	 20	 60	-20	 1	 100	 1	 200	 54.21;
	 172	 60.525	 10	 30	-10	 1	 100	 1	 100	 21.05;
	 175	 350	 60	 160	-40	 1	 100	 1	 600	 100;
	 177	 118.485	 15	 40	-10	 1	 100	 1	 200	 36.97;
	 183	 350	 60	 160	-40	 1	 100	 1	 600	 100;
	 185	 127.925	 20	 60	-20	 1	 100	 1	 200	 55.85;
	 187	 118.485	 15	 40	-10	 1	 100	 1	 200	 36.97;
	 188	 118.485	 15	 40	-10	 1	 100	 1	 200	 36.97;
	 189	 118.485	 15	 40	-10	 1	 100	 1	 200	 36.97;
	 190	 118.485	 15	 40	-10	 1	 100	 1	 200	 36.97;
	 191	 66.1	 15	 40	-10	 1	 100	 1	 100	 32.2;
	 192	 66.1	 15	 40	-10	 1	 100	 1	 100	 32.2;
	 193	 66.1	 15	 40	-10	 1	 100	 1	 100	 32.2;
	 196	 132.01	 20	 60	-20	 1	 100	 1	 200	 64.02;
	 201	 57.115	 5	 20	-10	 1	 100	 1	 100	 14.23;
	 207	 56.735	 10	 30	-10	 1	 100	 1	 100	 13.47;
	 224	 63.935	 15	 40	-10	 1	 100	 1	 100	 27.87;
	 225	 118.75	 15	 40	-10	 1	 100	 1	 200	 37.5;
	 231	 127.105	 20	 60	-20	 1	 100	 1	 200	 54.21;
	 233	 300	 60	 160	-40	 1	 100	 1	 500	 100;
	 237	 51.195	 0	 10	-10	 1	 100	 1	 100	 2.39;
	 239	 119.04	 15	 40	-10	 1	 100	 1	 200	 38.08;
	 240	 118.515	 15	 40	-10	 1	 100	 1	 200	 37.03;
	 241	 118.515	 15	 40	-10	 1	 100	 1	 200	 37.03;
	 242	 118.515	 15	 40	-10	 1	 100	 1	 200	 37.03;
	 243	 118.515	 15	 40	-10	 1	 100	 1	 200	 37.03;
	 244	 118.515	 15	 40	-10	 1	 100	 1	 200	 37.03;
	 245	 118.515	 15	 40	-10	 1	 100	 1	 200	 37.03;
	 246	 65.42	 15	 40	-10	 1	 100	 1	 100	 30.84;
	 247	 65.42	 15	 40	-10	 1	 100	 1	 100	 30.84;
	 248	 65.42	 15	 40	-10	 1	 100	 1	 100	 30.84;
	 254	 54.27	 0	 10	-10	 1	 100	 1	 100	 8.54;
	 255	 57.45	 10	 30	-10	 1	 100	 1	 100	 14.9;
	 256	 122.765	 20	 60	-20	 1	 100	 1	 200	 45.53;
	 261	 58.575	 10	 30	-10	 1	 100	 1	 100	 17.15;
	 273	 58.63	 15	 40	-10	 1	 100	 1	 100	 17.26;
	 277	 56.365	 5	 20	-10	 1	 100	 1	 100	 12.73;
	 284	 300	 60	 160	-40	 1	 100	 1	 500	 100;
	 285	 300	 60	 160	-40	 1	 100	 1	 500	 100;
	 286	 300	 60	 160	-40	 1	 100	 1	 500	 100;
	 287	 350	 60	 160	-40	 1	 100	 1	 600	 100;
	 290	 57.15	 5	 20	-10	 1	 100	 1	 100	 14.3;
	 292	 61.985	 15	 40	-10	 1	 100	 1	 100	 23.97;
	 293	 132.3	 20	 60	-20	 1	 100	 1	 200	 64.6;
	 294	 52.645	 0	 10	-10	 1	 100	 1	 100	 5.29;
	 297	 58.47	 10	 30	-10	 1	 100	 1	 100	 16.94;
	 304	 118.945	 15	 40	-10	 1	 100	 1	 200	 37.89;
	 305	 118.945	 15	 40	-10	 1	 100	 1	 200	 37.89;
	 306	 118.945	 15	 40	-10	 1	 100	 1	 200	 37.89;
	 311	 127.105	 20	 60	-20	 1	 100	 1	 200	 54.21;
	 317	 132.01	 20	 60	-20	 1	 100	 1	 200	 64.02;
	 320	 56.205	 10	 30	-10	 1	 100	 1	 100	 12.41;
	 321	 51.755	 0	 10	-10	 1	 100	 1	 100	 3.51;
	 326	 130.895	 20	 60	-20	 1	 100	 1	 200	 61.79;
	 332	 250	 80	 210	-50	 1	 100	 1	 400	 100;
	 333	 118.405	 15	 40	-10	 1	 100	 1	 200	 36.81;
	 337	 63.935	 15	 40	-10	 1	 100	 1	 100	 27.87;
	 338	 116.98	 15	 40	-10	 1	 100	 1	 200	 33.96;
	 342	 58.575	 10	 30	-10	 1	 100	 1	 100	 17.15;
	 343	 58.575	 10	 30	-10	 1	 100	 1	 100	 17.15;
	 344	 58.575	 10	 30	-10	 1	 100	 1	 100	 17.15;
	 346	 61.38	 10	 30	-10	 1	 100	 1	 100	 22.76;
	 348	 62.44	 10	 30	-10	 1	 100	 1	 100	 24.88;
	 349	 63.385	 10	 30	-10	 1	 100	 1	 100	 26.77;
	 350	 62.44	 10	 30	-10	 1	 100	 1	 100	 24.88;
	 351	 51.755	 0	 10	-10	 1	 100	 1	 100	 3.51;
	 352	 56.635	 10	 30	-10	 1	 100	 1	 100	 13.27;
	 353	 56.635	 10	 30	-10	 1	 100	 1	 100	 13.27;
	 354	 65.4	 10	 30	-10	 1	 100	 1	 100	 30.8;
	 355	 55.555	 10	 30	-10	 1	 100	 1	 100	 11.11;
	 364	 119.09	 15	 40	-10	 1	 100	 1	 200	 38.18;
	 370	 131.015	 20	 60	-20	 1	 100	 1	 200	 62.03;
	 375	 64.115	 15	 40	-10	 1	 100	 1	 100	 28.23;
	 376	 350	 60	 160	-40	 1	 100	 1	 600	 100;
	 377	 350	 60	 160	-40	 1	 100	 1	 600	 100;
	 399	 63.935	 15	 40	-10	 1	 100	 1	 100	 27.87;
	 400	 52.455	 0	 10	-10	 1	 100	 1	 100	 4.91;
	 401	 51.755	 0	 10	-10	 1	 100	 1	 100	 3.51;
	 402	 56.97	 10	 30	-10	 1	 100	 1	 100	 13.94;
	 407	 58.45	 15	 40	-10	 1	 100	 1	 100	 16.9;
	 408	 62.44	 10	 30	-10	 1	 100	 1	 100	 24.88;
	 409	 55.425	 10	 30	-10	 1	 100	 1	 100	 10.85;
	 411	 62.44	 10	 30	-10	 1	 100	 1	 100	 24.88;
	 412	 1300	 200	 520	-120	 1	 100	 1	 2000	 600;
	 415	 131.015	 20	 60	-20	 1	 100	 1	 200	 62.03;
	 416	 65.18	 15	 40	-10	 1	 100	 1	 100	 30.36;
	 423	 61.985	 15	 40	-10	 1	 100	 1	 100	 23.97;
	 424	 61.895	 10	 30	-10	 1	 100	 1	 100	 23.79;
	 425	 122.56	 20	 60	-20	 1	 100	 1	 200	 45.12;
	 426	 55.175	 0	 10	-10	 1	 100	 1	 100	 10.35;
	 436	 500	 80	 210	-50	 1	 100	 1	 800	 200;
	 437	 500	 80	 210	-50	 1	 100	 1	 800	 200;
	 438	 500	 80	 210	-50	 1	 100	 1	 800	 200;
	 439	 126.8	 20	 60	-20	 1	 100	 1	 200	 53.6;
	 449	 58.915	 15	 40	-10	 1	 100	 1	 100	 17.83;
	 451	 57.67	 10	 30	-10	 1	 100	 1	 100	 15.34;
	 452	 133.235	 20	 60	-20	 1	 100	 1	 200	 66.47;
	 457	 51.425	 0	 10	-10	 1	 100	 1	 100	 2.85;
	 458	 51.755	 0	 10	-10	 1	 100	 1	 100	 3.51;
	 460	 56.97	 10	 30	-10	 1	 100	 1	 100	 13.94;
	 463	 131.675	 20	 60	-20	 1	 100	 1	 200	 63.35;
	 464	 62.2	 10	 30	-10	 1	 100	 1	 100	 24.4;
	 465	 62.2	 10	 30	-10	 1	 100	 1	 100	 24.4;
	 467	 126.8	 20	 60	-20	 1	 100	 1	 200	 53.6;
	 468	 126.8	 20	 60	-20	 1	 100	 1	 200	 53.6;
	 470	 126.8	 20	 60	-20	 1	 100	 1	 200	 53.6;
	 477	 65.42	 15	 40	-10	 1	 100	 1	 100	 30.84;
	 480	 300	 60	 160	-40	 1	 100	 1	 500	 100;
	 481	 300	 60	 160	-40	 1	 100	 1	 500	 100;
	 482	 61.985	 15	 40	-10	 1	 100	 1	 100	 23.97;
	 485	 55.36	 0	 10	-10	 1	 100	 1	 100	 10.72;
	 491	 300	 60	 160	-40	 1	 100	 1	 500	 100;
	 492	 132.3	 20	 60	-20	 1	 100	 1	 200	 64.6;
	 493	 183.47	 20	 60	-20	 1	 100	 1	 300	 66.94;
	 496	 66.625	 15	 40	-10	 1	 100	 1	 100	 33.25;
	 497	 66.625	 15	 40	-10	 1	 100	 1	 100	 33.25;
	 498	 66.625	 15	 40	-10	 1	 100	 1	 100	 33.25;
	 499	 66.625	 15	 40	-10	 1	 100	 1	 100	 33.25;
	 503	 450	 80	 210	-50	 1	 100	 1	 700	 200;
	 504	 61.475	 10	 30	-10	 1	 100	 1	 100	 22.95;
	 505	 300	 60	 160	-40	 1	 100	 1	 500	 100;
	 508	 60.905	 10	 30	-10	 1	 100	 1	 100	 21.81;
	 509	 60.525	 10	 30	-10	 1	 100	 1	 100	 21.05;
	 515	 116.765	 15	 40	-10	 1	 100	 1	 200	 33.53;
	 516	 131.675	 20	 60	-20	 1	 100	 1	 200	 63.35;
	 517	 58.45	 15	 40	-10	 1	 100	 1	 100	 16.9;
	 518	 350	 60	 160	-40	 1	 100	 1	 600	 100;
	 521	 57.46	 10	 30	-10	 1	 100	 1	 100	 14.92;
	 525	 131.015	 20	 60	-20	 1	 100	 1	 200	 62.03;
	 526	 66.27	 15	 40	-10	 1	 100	 1	 100	 32.54;
	 528	 59.81	 10	 30	-10	 1	 100	 1	 100	 19.62;
	 531	 66.27	 15	 40	-10	 1	 100	 1	 100	 32.54;
	 532	 66.27	 15	 40	-10	 1	 100	 1	 100	 32.54;
	 533	 127.925	 20	 60	-20	 1	 100	 1	 200	 55.85;
	 536	 63.145	 10	 30	-10	 1	 100	 1	 100	 26.29;
	 547	 183.47	 20	 60	-20	 1	 100	 1	 300	 66.94;
	 550	 300	 60	 160	-40	 1	 100	 1	 500	 100;
	 561	 450	 80	 210	-50	 1	 100	 1	 700	 200;
	 563	 54.92	 0	 10	-10	 1	 100	 1	 100	 9.84;
...
];

mpc_regionR1.branch = [
%	fbus        tbus        r           x           b           rateA       rateB       rateC       ratio       angle       status      angmin      angmax      
	 80	 983	 7e-05	 0.00057	 0	 55004	 55004	 55004	 0	 0	 1	-30	 30;
	 80	 826	 6e-05	 0.00056	 0	 56085	 56085	 56085	 0	 0	 1	-30	 30;
	 1425	 1325	 0.003349	 0.01656	 0	 1870	 1870	 1870	 0	 0	 1	-30	 30;
	 1425	 560	 0.003409	 0.016211	 0	 1907	 1907	 1907	 0	 0	 1	-30	 30;
	 823	 1325	 0.003479	 0.01586	 0	 1946	 1946	 1946	 0	 0	 1	-30	 30;
	 823	 560	 0.003099	 0.017969	 0	 1733	 1733	 1733	 0	 0	 1	-30	 30;
	 952	 1396	 0.00236	 0.01418	 0	 2198	 2198	 2198	 0	 0	 1	-30	 30;
	 952	 1385	 0.002169	 0.015909	 0	 1968	 1968	 1968	 0	 0	 1	-30	 30;
	 1346	 1256	 0.00374	 0.02095	 0	 1485	 1485	 1485	 0	 0	 1	-30	 30;
	 29	 523	 0.00064	 0.00715	 0	 4401	 4401	 4401	 0	 0	 1	-30	 30;
	 29	 1394	 0.00089	 0.00712	 0	 4403	 4403	 4403	 0	 0	 1	-30	 30;
	 929	 126	 0.00048	 0.00555	 0	 5671	 5671	 5671	 0	 0	 1	-30	 30;
	 929	 1400	 0.00047	 0.00566	 0	 5562	 5562	 5562	 0	 0	 1	-30	 30;
	 1350	 126	 0.00046	 0.00524	 0	 6006	 6006	 6006	 0	 0	 1	-30	 30;
	 1350	 1400	 0.00052	 0.00514	 0	 6115	 6115	 6115	 0	 0	 1	-30	 30;
	 1167	 908	 0.00029	 0.00298	 0	 10550	 10550	 10550	 0	 0	 1	-30	 30;
	 1167	 1093	 0.0003	 0.00291	 0	 10798	 10798	 10798	 0	 0	 1	-30	 30;
	 878	 956	 0.00058	 0.00534	 0	 5881	 5881	 5881	 0	 0	 1	-30	 30;
	 878	 554	 0.00054	 0.00589	 0	 5341	 5341	 5341	 0	 0	 1	-30	 30;
	 651	 1474	 0.00036	 0.00485	 0	 6495	 6495	 6495	 0	 0	 1	-30	 30;
	 651	 1123	 0.00042	 0.00415	 0	 7573	 7573	 7573	 0	 0	 1	-30	 30;
	 1483	 886	 0.00053	 0.00587	 0	 5360	 5360	 5360	 0	 0	 1	-30	 30;
	 1483	 1006	 0.00055	 0.00666	 0	 4727	 4727	 4727	 0	 0	 1	-30	 30;
	 604	 319	 0.00051	 0.00614	 0	 5127	 5127	 5127	 0	 0	 1	-30	 30;
	 604	 1123	 0.00043	 0.00406	 0	 7737	 7737	 7737	 0	 0	 1	-30	 30;
	 184	 1109	 0.002211	 0.014419	 0	 2166	 2166	 2166	 0	 0	 1	-30	 30;
	 184	 560	 0.002169	 0.013349	 0	 2336	 2336	 2336	 0	 0	 1	-30	 30;
	 1514	 962	 0.00033	 0.00101	 0	 29729	 29729	 29729	 0	 0	 1	-30	 30;
	 1411	 962	 0.00028	 0.00104	 0	 29329	 29329	 29329	 0	 0	 1	-30	 30;
	 801	 828	 0.00057	 0.0071	 0	 4435	 4435	 4435	 0	 0	 1	-30	 30;
	 801	 1123	 0.00057	 0.00697	 0	 4517	 4517	 4517	 0	 0	 1	-30	 30;
	 1178	 236	 0.003289	 0.019091	 0	 1631	 1631	 1631	 0	 0	 1	-30	 30;
	 1178	 313	 0.004169	 0.025349	 0	 1230	 1230	 1230	 0	 0	 1	-30	 30;
	 1178	 740	 0.00439	 0.023909	 0	 1300	 1300	 1300	 0	 0	 1	-30	 30;
	 874	 770	 0.00156	 0.01956	 0	 1610	 1610	 1610	 0	 0	 1	-30	 30;
	 770	 1314	 0.00029	 0.00391	 0	 8057	 8057	 8057	 0	 0	 1	-30	 30;
	 770	 1056	 0.00179	 0.02522	 0	 1250	 1250	 1250	 0	 0	 1	-30	 30;
	 276	 770	 0.00079	 0.00756	 0	 4156	 4156	 4156	 0	 0	 1	-30	 30;
	 770	 1406	 0.00027	 0.00281	 0	 11190	 11190	 11190	 0	 0	 1	-30	 30;
	 770	 1406	 0.00026	 0.00286	 0	 11000	 11000	 11000	 0	 0	 1	-30	 30;
	 406	 65	 0.000281	 0.00213	 0	 14703	 14703	 14703	 0	 0	 1	-30	 30;
	 406	 926	 0.000419	 0.00299	 0	 10463	 10463	 10463	 0	 0	 1	-30	 30;
	 682	 887	 0.001659	 0.009091	 0	 3419	 3419	 3419	 0	 0	 1	-30	 30;
	 682	 1120	 0.00439	 0.03324	 0	 943	 943	 943	 0	 0	 1	-30	 30;
	 1071	 1540	 0.000841	 0.00612	 0	 5114	 5114	 5114	 0	 0	 1	-30	 30;
	 1071	 41	 0.003341	 0.022841	 0	 1369	 1369	 1369	 0	 0	 1	-30	 30;
	 1071	 620	 0.00581	 0.04232	 0	 740	 740	 740	 0	 0	 1	-30	 30;
	 1071	 265	 0.00495	 0.02919	 0	 1067	 1067	 1067	 0	 0	 1	-30	 30;
	 1071	 1009	 0.01789	 0.07795	 0	 395	 395	 395	 0	 0	 1	-30	 30;
	 1071	 909	 0.00186	 0.014289	 0	 2193	 2193	 2193	 0	 0	 1	-30	 30;
	 1071	 420	 0.002281	 0.014401	 0	 2167	 2167	 2167	 0	 0	 1	-30	 30;
	 829	 522	 0.00031	 0.00132	 0	 23296	 23296	 23296	 0	 0	 1	-30	 30;
	 829	 1236	 0.001349	 0.0077	 0	 4041	 4041	 4041	 0	 0	 1	-30	 30;
	 1023	 1064	 0.00586	 0.02574	 0	 1197	 1197	 1197	 0	 0	 1	-30	 30;
	 1023	 1086	 0.00556	 0.020211	 0	 1507	 1507	 1507	 0	 0	 1	-30	 30;
	 948	 1448	 0.00026	 0.001159	 0	 26594	 26594	 26594	 0	 0	 1	-30	 30;
	 1448	 1189	 0.000599	 0.002419	 0	 12676	 12676	 12676	 0	 0	 1	-30	 30;
	 552	 1272	 0.0005	 0.00386	 0	 8116	 8116	 8116	 0	 0	 1	-30	 30;
	 552	 1105	 0.00107	 0.008289	 0	 3780	 3780	 3780	 0	 0	 1	-30	 30;
	 552	 1105	 0.001091	 0.00811	 0	 3861	 3861	 3861	 0	 0	 1	-30	 30;
	 1320	 552	 0.00038	 0.00255	 0	 12252	 12252	 12252	 0	 0	 1	-30	 30;
	 948	 1162	 0.000271	 0.000979	 0	 31096	 31096	 31096	 0	 0	 1	-30	 30;
	 421	 309	 7e-05	 0.00076	 0	 41388	 41388	 41388	 0	 0	 1	-30	 30;
	 421	 64	 0.000521	 0.003901	 0	 8026	 8026	 8026	 0	 0	 1	-30	 30;
	 874	 1465	 0.0016	 0.01839	 0	 1712	 1712	 1712	 0	 0	 1	-30	 30;
	 1036	 258	 0.007651	 0.058781	 0	 533	 533	 533	 0	 0	 1	-30	 30;
	 1036	 1121	 0.00394	 0.02182	 0	 1425	 1425	 1425	 0	 0	 1	-30	 30;
	 1036	 705	 0.003461	 0.03005	 0	 1045	 1045	 1045	 0	 0	 1	-30	 30;
	 1036	 866	 0.00337	 0.01831	 0	 1697	 1697	 1697	 0	 0	 1	-30	 30;
	 1430	 779	 0.000581	 0.00194	 0	 15598	 15598	 15598	 0	 0	 1	-30	 30;
	 1313	 779	 0.000539	 0.001719	 0	 17534	 17534	 17534	 0	 0	 1	-30	 30;
	 179	 164	 0.00249	 0.03075	 0	 1024	 1024	 1024	 0	 0	 1	-30	 30;
	 164	 814	 0.0014	 0.01409	 0	 2231	 2231	 2231	 0	 0	 1	-30	 30;
	 1397	 1182	 0.008	 0.050031	 0	 624	 624	 624	 0	 0	 1	-30	 30;
	 1397	 1009	 0.002211	 0.01562	 0	 2003	 2003	 2003	 0	 0	 1	-30	 30;
	 1511	 662	 0.00281	 0.021831	 0	 1436	 1436	 1436	 0	 0	 1	-30	 30;
	 1511	 1391	 0.000711	 0.004919	 0	 6356	 6356	 6356	 0	 0	 1	-30	 30;
	 514	 1552	 0.001841	 0.00738	 0	 4153	 4153	 4153	 0	 0	 1	-30	 30;
	 514	 614	 0.002849	 0.008979	 0	 3354	 3354	 3354	 0	 0	 1	-30	 30;
	 1475	 662	 0.00232	 0.014099	 0	 2211	 2211	 2211	 0	 0	 1	-30	 30;
	 1475	 662	 0.00237	 0.0138	 0	 2256	 2256	 2256	 0	 0	 1	-30	 30;
	 1475	 1228	 0.00081	 0.004591	 0	 6776	 6776	 6776	 0	 0	 1	-30	 30;
	 1475	 1186	 0.002219	 0.010469	 0	 2952	 2952	 2952	 0	 0	 1	-30	 30;
	 303	 345	 0.001081	 0.00851	 0	 3683	 3683	 3683	 0	 0	 1	-30	 30;
	 345	 1415	 0.00087	 0.006969	 0	 4498	 4498	 4498	 0	 0	 1	-30	 30;
	 345	 1415	 0.00088	 0.006831	 0	 4587	 4587	 4587	 0	 0	 1	-30	 30;
	 345	 861	 0.000349	 0.00237	 0	 13186	 13186	 13186	 0	 0	 1	-30	 30;
	 134	 1170	 0.00232	 0.00924	 0	 3316	 3316	 3316	 0	 0	 1	-30	 30;
	 134	 688	 0.00812	 0.03669	 0	 841	 841	 841	 0	 0	 1	-30	 30;
	 396	 1202	 0.003521	 0.02825	 0	 1110	 1110	 1110	 0	 0	 1	-30	 30;
	 396	 881	 0.00264	 0.017651	 0	 1770	 1770	 1770	 0	 0	 1	-30	 30;
	 1361	 1170	 0.00486	 0.02149	 0	 1434	 1434	 1434	 0	 0	 1	-30	 30;
	 1361	 1210	 0.006831	 0.034669	 0	 894	 894	 894	 0	 0	 1	-30	 30;
	 1361	 1260	 0.017211	 0.108151	 0	 289	 289	 289	 0	 0	 1	-30	 30;
	 1361	 1460	 0.00063	 0.00475	 0	 6593	 6593	 6593	 0	 0	 1	-30	 30;
	 1361	 1460	 0.00062	 0.004841	 0	 6473	 6473	 6473	 0	 0	 1	-30	 30;
	 179	 446	 0.0009	 0.01092	 0	 2883	 2883	 2883	 0	 0	 1	-30	 30;
	 446	 1229	 0.00124	 0.01096	 0	 2864	 2864	 2864	 0	 0	 1	-30	 30;
	 545	 519	 0.003211	 0.00176	 0	 8627	 8627	 8627	 0	 0	 1	-30	 30;
	 545	 1391	 0.001521	 0.008031	 0	 3865	 3865	 3865	 0	 0	 1	-30	 30;
	 983	 358	 0.0005	 0.00441	 0	 7118	 7118	 7118	 0	 0	 1	-30	 30;
	 983	 281	 0.00247	 0.02573	 0	 1223	 1223	 1223	 0	 0	 1	-30	 30;
	 983	 234	 0.00042	 0.00367	 0	 8552	 8552	 8552	 0	 0	 1	-30	 30;
	 1325	 777	 0.0023	 0.01644	 0	 1903	 1903	 1903	 0	 0	 1	-30	 30;
	 1325	 777	 0.00226	 0.01676	 0	 1868	 1868	 1868	 0	 0	 1	-30	 30;
	 1325	 777	 0.0023	 0.0162	 0	 1931	 1931	 1931	 0	 0	 1	-30	 30;
	 1325	 777	 0.00225	 0.015	 0	 2083	 2083	 2083	 0	 0	 1	-30	 30;
	 418	 1065	 0.007281	 0.035729	 0	 867	 867	 867	 0	 0	 1	-30	 30;
	 405	 1065	 0.001919	 0.00945	 0	 3276	 3276	 3276	 0	 0	 1	-30	 30;
	 693	 219	 0.005211	 0.02981	 0	 1044	 1044	 1044	 0	 0	 1	-30	 30;
	 693	 1236	 0.000659	 0.00586	 0	 5357	 5357	 5357	 0	 0	 1	-30	 30;
	 693	 1236	 0.000591	 0.00664	 0	 4739	 4739	 4739	 0	 0	 1	-30	 30;
	 693	 328	 0.011969	 0.07424	 0	 421	 421	 421	 0	 0	 1	-30	 30;
	 303	 540	 0.000531	 0.003919	 0	 7988	 7988	 7988	 0	 0	 1	-30	 30;
	 744	 596	 0.001521	 0.00718	 0	 4304	 4304	 4304	 0	 0	 1	-30	 30;
	 744	 596	 0.001211	 0.00613	 0	 5056	 5056	 5056	 0	 0	 1	-30	 30;
	 744	 889	 0.00676	 0.03725	 0	 835	 835	 835	 0	 0	 1	-30	 30;
	 744	 1242	 0.00399	 0.018091	 0	 1706	 1706	 1706	 0	 0	 1	-30	 30;
	 1192	 953	 0.000341	 0.00339	 0	 9272	 9272	 9272	 0	 0	 1	-30	 30;
	 1192	 740	 0.001271	 0.0102	 0	 3074	 3074	 3074	 0	 0	 1	-30	 30;
	 1192	 740	 0.00125	 0.010401	 0	 3016	 3016	 3016	 0	 0	 1	-30	 30;
	 892	 96	 0.00261	 0.016651	 0	 1875	 1875	 1875	 0	 0	 1	-30	 30;
	 1622	 96	 0.000219	 0.002409	 0	 13059	 13059	 13059	 0	 0	 1	-30	 30;
	 1210	 880	 0.00601	 0.02814	 0	 1098	 1098	 1098	 0	 0	 1	-30	 30;
	 880	 1248	 0.008969	 0.03787	 0	 812	 812	 812	 0	 0	 1	-30	 30;
	 880	 780	 0.00232	 0.01094	 0	 2825	 2825	 2825	 0	 0	 1	-30	 30;
	 179	 1229	 0.00196	 0.02382	 0	 1322	 1322	 1322	 0	 0	 1	-30	 30;
	 179	 1281	 0.00422	 0.03598	 0	 872	 872	 872	 0	 0	 1	-30	 30;
	 179	 1281	 0.0043	 0.03522	 0	 891	 891	 891	 0	 0	 1	-30	 30;
	 1504	 179	 0.00208	 0.01691	 0	 1854	 1854	 1854	 0	 0	 1	-30	 30;
	 179	 486	 0.00544	 0.05439	 0	 578	 578	 578	 0	 0	 1	-30	 30;
	 179	 32	 0.00239	 0.02598	 0	 1211	 1211	 1211	 0	 0	 1	-30	 30;
	 179	 73	 0.00396	 0.03096	 0	 1013	 1013	 1013	 0	 0	 1	-30	 30;
	 179	 73	 0.00353	 0.03509	 0	 896	 896	 896	 0	 0	 1	-30	 30;
	 664	 1564	 0.000531	 0.003729	 0	 8387	 8387	 8387	 0	 0	 1	-30	 30;
	 664	 1564	 0.00038	 0.0025	 0	 12492	 12492	 12492	 0	 0	 1	-30	 30;
	 664	 1564	 0.00039	 0.00244	 0	 12784	 12784	 12784	 0	 0	 1	-30	 30;
	 664	 266	 0.00836	 0.044521	 0	 698	 698	 698	 0	 0	 1	-30	 30;
	 302	 204	 0.00264	 0.03029	 0	 1039	 1039	 1039	 0	 0	 1	-30	 30;
	 302	 1207	 0.00396	 0.04589	 0	 686	 686	 686	 0	 0	 1	-30	 30;
	 1509	 1194	 0.00411	 0.021729	 0	 1429	 1429	 1429	 0	 0	 1	-30	 30;
	 1509	 1316	 0.00607	 0.0285	 0	 1085	 1085	 1085	 0	 0	 1	-30	 30;
	 1438	 381	 0.00075	 0.0047	 0	 6637	 6637	 6637	 0	 0	 1	-30	 30;
	 813	 381	 0.00114	 0.007969	 0	 3924	 3924	 3924	 0	 0	 1	-30	 30;
	 553	 513	 0.00036	 0.00324	 0	 9690	 9690	 9690	 0	 0	 1	-30	 30;
	 553	 1585	 0.00094	 0.00874	 0	 3594	 3594	 3594	 0	 0	 1	-30	 30;
	 442	 1297	 0.00949	 0.05145	 0	 604	 604	 604	 0	 0	 1	-30	 30;
	 442	 904	 0.011719	 0.0337	 0	 886	 886	 886	 0	 0	 1	-30	 30;
	 543	 442	 0.0022	 0.012331	 0	 2522	 2522	 2522	 0	 0	 1	-30	 30;
	 753	 792	 0.00038	 0.00448	 0	 7026	 7026	 7026	 0	 0	 1	-30	 30;
	 753	 1056	 0.00098	 0.01126	 0	 2795	 2795	 2795	 0	 0	 1	-30	 30;
	 7	 1061	 0.00055	 0.00621	 0	 5067	 5067	 5067	 0	 0	 1	-30	 30;
	 7	 386	 0.00163	 0.01287	 0	 2435	 2435	 2435	 0	 0	 1	-30	 30;
	 1129	 1597	 0.0018	 0.01886	 0	 1668	 1668	 1668	 0	 0	 1	-30	 30;
	 1129	 1597	 0.0047	 0.024969	 0	 1244	 1244	 1244	 0	 0	 1	-30	 30;
	 1129	 472	 0.009711	 0.059669	 0	 523	 523	 523	 0	 0	 1	-30	 30;
	 1129	 949	 0.005271	 0.03451	 0	 905	 905	 905	 0	 0	 1	-30	 30;
	 163	 221	 0.016169	 0.11936	 0	 263	 263	 263	 0	 0	 1	-30	 30;
	 163	 250	 0.00226	 0.014789	 0	 2112	 2112	 2112	 0	 0	 1	-30	 30;
	 1540	 264	 0.00151	 0.01081	 0	 2894	 2894	 2894	 0	 0	 1	-30	 30;
	 133	 862	 0.00228	 0.0217	 0	 1448	 1448	 1448	 0	 0	 1	-30	 30;
	 133	 647	 0.00137	 0.01593	 0	 1976	 1976	 1976	 0	 0	 1	-30	 30;
	 1445	 690	 0.00099	 0.0121	 0	 2602	 2602	 2602	 0	 0	 1	-30	 30;
	 1445	 410	 0	 0.01881	 0	 1680	 1680	 1680	 0	 0	 1	-30	 30;
	 1445	 70	 0.00143	 0.0163	 0	 1931	 1931	 1931	 0	 0	 1	-30	 30;
	 1445	 1299	 0.00057	 0.00562	 0	 5592	 5592	 5592	 0	 0	 1	-30	 30;
	 1445	 1299	 0.00055	 0.00572	 0	 5497	 5497	 5497	 0	 0	 1	-30	 30;
	 1445	 1168	 0.00057	 0.00658	 0	 4783	 4783	 4783	 0	 0	 1	-30	 30;
	 1445	 979	 0.00075	 0.0082	 0	 3837	 3837	 3837	 0	 0	 1	-30	 30;
	 1445	 150	 0.00253	 0.02153	 0	 1458	 1458	 1458	 0	 0	 1	-30	 30;
	 41	 1512	 0.00236	 0.011219	 0	 2756	 2756	 2756	 0	 0	 1	-30	 30;
	 562	 965	 0.00173	 0.0154	 0	 2039	 2039	 2039	 0	 0	 1	-30	 30;
	 562	 489	 0.00385	 0.04172	 0	 754	 754	 754	 0	 0	 1	-30	 30;
	 562	 489	 0.00377	 0.04251	 0	 741	 741	 741	 0	 0	 1	-30	 30;
	 562	 281	 0.00199	 0.02121	 0	 1483	 1483	 1483	 0	 0	 1	-30	 30;
	 562	 216	 0.00236	 0.01933	 0	 1623	 1623	 1623	 0	 0	 1	-30	 30;
	 562	 216	 0.00241	 0.01891	 0	 1658	 1658	 1658	 0	 0	 1	-30	 30;
	 414	 607	 0.000521	 0.004729	 0	 6640	 6640	 6640	 0	 0	 1	-30	 30;
	 414	 964	 0.00094	 0.005581	 0	 5582	 5582	 5582	 0	 0	 1	-30	 30;
	 860	 209	 0.00134	 0.01324	 0	 2374	 2374	 2374	 0	 0	 1	-30	 30;
	 860	 501	 0.00073	 0.00638	 0	 4919	 4919	 4919	 0	 0	 1	-30	 30;
	 274	 440	 0.00248	 0.02774	 0	 1135	 1135	 1135	 0	 0	 1	-30	 30;
	 274	 92	 0.00152	 0.013	 0	 2414	 2414	 2414	 0	 0	 1	-30	 30;
	 274	 92	 0.00155	 0.01272	 0	 2466	 2466	 2466	 0	 0	 1	-30	 30;
	 274	 1459	 0.00117	 0.01301	 0	 2419	 2419	 2419	 0	 0	 1	-30	 30;
	 274	 549	 0.00197	 0.02054	 0	 1531	 1531	 1531	 0	 0	 1	-30	 30;
	 274	 1588	 0.00157	 0.01909	 0	 1650	 1650	 1650	 0	 0	 1	-30	 30;
	 540	 818	 0.00107	 0.008669	 0	 3617	 3617	 3617	 0	 0	 1	-30	 30;
	 818	 282	 0.000469	 0.00314	 0	 9950	 9950	 9950	 0	 0	 1	-30	 30;
	 222	 132	 0.000409	 0.00305	 0	 10265	 10265	 10265	 0	 0	 1	-30	 30;
	 228	 132	 0.00569	 0.032979	 0	 944	 944	 944	 0	 0	 1	-30	 30;
	 616	 1568	 0.00087	 0.006771	 0	 4628	 4628	 4628	 0	 0	 1	-30	 30;
	 616	 1512	 0.002151	 0.014039	 0	 2225	 2225	 2225	 0	 0	 1	-30	 30;
	 1146	 1214	 9.9e-05	 0.00043	 0	 71587	 71587	 71587	 0	 0	 1	-30	 30;
	 1161	 1146	 0.000151	 0.0005	 0	 60477	 60477	 60477	 0	 0	 1	-30	 30;
	 1396	 404	 0.001531	 0.00812	 0	 3823	 3823	 3823	 0	 0	 1	-30	 30;
	 1396	 404	 0.00113	 0.00857	 0	 3655	 3655	 3655	 0	 0	 1	-30	 30;
	 772	 1291	 0.00226	 0.01868	 0	 1679	 1679	 1679	 0	 0	 1	-30	 30;
	 772	 861	 0.000401	 0.00239	 0	 13035	 13035	 13035	 0	 0	 1	-30	 30;
	 768	 361	 0.001169	 0.008349	 0	 3747	 3747	 3747	 0	 0	 1	-30	 30;
...
];

mpc_regionR1.gencost = [
%	2           startup     shutdown    n           c(n-1)...c0 
	 2	 0	 0	 3	 0	 28.508304	 0;
	 2	 0	 0	 3	 0	 40.567642	 0;
	 2	 0	 0	 3	 0	 25.031117	 0;
	 2	 0	 0	 3	 0	 44.242378	 0;
	 2	 0	 0	 3	 0	 26.316094	 0;
	 2	 0	 0	 3	 0	 35.162551	 0;
	 2	 0	 0	 3	 0	 18.080374	 0;
	 2	 0	 0	 3	 0	 46.336521	 0;
	 2	 0	 0	 3	 0	 50.130798	 0;
	 2	 0	 0	 3	 0	 38.676174	 0;
	 2	 0	 0	 3	 0	 36.196636	 0;
	 2	 0	 0	 3	 0	 35.01475	 0;
	 2	 0	 0	 3	 0	 36.955337	 0;
	 2	 0	 0	 3	 0	 26.641399	 0;
	 2	 0	 0	 3	 0	 30.069068	 0;
	 2	 0	 0	 3	 0	 37.91745	 0;
	 2	 0	 0	 3	 0	 23.221093	 0;
	 2	 0	 0	 3	 0	 27.946972	 0;
	 2	 0	 0	 3	 0	 27.942449	 0;
	 2	 0	 0	 3	 0	 27.648114	 0;
	 2	 0	 0	 3	 0	 37.188084	 0;
	 2	 0	 0	 3	 0	 24.797374	 0;
	 2	 0	 0	 3	 0	 2.807034	 0;
	 2	 0	 0	 3	 0	 38.330795	 0;
	 2	 0	 0	 3	 0	 43.022659	 0;
	 2	 0	 0	 3	 0	 42.206209	 0;
	 2	 0	 0	 3	 0	 43.679004	 0;
	 2	 0	 0	 3	 0	 18.085532	 0;
	 2	 0	 0	 3	 0	 29.229155	 0;
	 2	 0	 0	 3	 0	 31.780348	 0;
	 2	 0	 0	 3	 0	 47.266202	 0;
	 2	 0	 0	 3	 0	 19.962398	 0;
	 2	 0	 0	 3	 0	 33.208792	 0;
	 2	 0	 0	 3	 0	 35.093584	 0;
	 2	 0	 0	 3	 0	 22.026018	 0;
	 2	 0	 0	 3	 0	 17.497695	 0;
	 2	 0	 0	 3	 0	 20.033813	 0;
	 2	 0	 0	 3	 0	 7.21261	 0;
	 2	 0	 0	 3	 0	 32.61181	 0;
	 2	 0	 0	 3	 0	 17.473367	 0;
	 2	 0	 0	 3	 0	 23.791906	 0;
	 2	 0	 0	 3	 0	 14.929146	 0;
	 2	 0	 0	 3	 0	 46.249004	 0;
	 2	 0	 0	 3	 0	 30.090355	 0;
	 2	 0	 0	 3	 0	 29.40718	 0;
	 2	 0	 0	 3	 0	 52.061496	 0;
	 2	 0	 0	 3	 0	 24.641691	 0;
	 2	 0	 0	 3	 0	 35.042468	 0;
	 2	 0	 0	 3	 0	 15.578132	 0;
	 2	 0	 0	 3	 0	 13.291487	 0;
	 2	 0	 0	 3	 0	 35.692644	 0;
	 2	 0	 0	 3	 0	 14.153577	 0;
	 2	 0	 0	 3	 0	 34.595292	 0;
	 2	 0	 0	 3	 0	 27.155531	 0;
	 2	 0	 0	 3	 0	 63.266048	 0;
	 2	 0	 0	 3	 0	 12.351011	 0;
	 2	 0	 0	 3	 0	 23.763435	 0;
	 2	 0	 0	 3	 0	 39.894374	 0;
	 2	 0	 0	 3	 0	 48.858118	 0;
	 2	 0	 0	 3	 0	 20.098849	 0;
	 2	 0	 0	 3	 0	 13.577178	 0;
	 2	 0	 0	 3	 0	 33.109801	 0;
	 2	 0	 0	 3	 0	 15.12939	 0;
	 2	 0	 0	 3	 0	 36.122872	 0;
	 2	 0	 0	 3	 0	 13.278661	 0;
	 2	 0	 0	 3	 0	 4.156797	 0;
	 2	 0	 0	 3	 0	 39.413334	 0;
	 2	 0	 0	 3	 0	 21.267633	 0;
	 2	 0	 0	 3	 0	 23.913209	 0;
	 2	 0	 0	 3	 0	 31.29599	 0;
	 2	 0	 0	 3	 0	 38.773715	 0;
	 2	 0	 0	 3	 0	 12.398101	 0;
	 2	 0	 0	 3	 0	 42.221526	 0;
	 2	 0	 0	 3	 0	 14.128223	 0;
	 2	 0	 0	 3	 0	 55.874011	 0;
	 2	 0	 0	 3	 0	 27.087358	 0;
	 2	 0	 0	 3	 0	 48.121989	 0;
	 2	 0	 0	 3	 0	 17.472143	 0;
	 2	 0	 0	 3	 0	 42.44142	 0;
	 2	 0	 0	 3	 0	 11.28186	 0;
	 2	 0	 0	 3	 0	 68.466193	 0;
	 2	 0	 0	 3	 0	 29.866452	 0;
	 2	 0	 0	 3	 0	 38.047902	 0;
	 2	 0	 0	 3	 0	 33.686046	 0;
	 2	 0	 0	 3	 0	 23.564693	 0;
	 2	 0	 0	 3	 0	 40.041237	 0;
	 2	 0	 0	 3	 0	 42.525293	 0;
	 2	 0	 0	 3	 0	 18.10958	 0;
	 2	 0	 0	 3	 0	 24.593607	 0;
	 2	 0	 0	 3	 0	 31.861109	 0;
	 2	 0	 0	 3	 0	 11.330907	 0;
	 2	 0	 0	 3	 0	 42.801899	 0;
	 2	 0	 0	 3	 0	 44.778364	 0;
	 2	 0	 0	 3	 0	 51.268191	 0;
	 2	 0	 0	 3	 0	 50.510686	 0;
	 2	 0	 0	 3	 0	 34.10675	 0;
	 2	 0	 0	 3	 0	 19.732638	 0;
	 2	 0	 0	 3	 0	 47.762304	 0;
	 2	 0	 0	 3	 0	 57.708031	 0;
	 2	 0	 0	 3	 0	 18.982498	 0;
	 2	 0	 0	 3	 0	 31.711854	 0;
	 2	 0	 0	 3	 0	 16.515157	 0;
	 2	 0	 0	 3	 0	 25.545725	 0;
	 2	 0	 0	 3	 0	 46.652363	 0;
	 2	 0	 0	 3	 0	 24.773575	 0;
	 2	 0	 0	 3	 0	 22.193183	 0;
	 2	 0	 0	 3	 0	 35.268404	 0;
	 2	 0	 0	 3	 0	 10.864692	 0;
	 2	 0	 0	 3	 0	 35.342754	 0;
	 2	 0	 0	 3	 0	 18.637625	 0;
	 2	 0	 0	 3	 0	 23.088774	 0;
	 2	 0	 0	 3	 0	 35.813709	 0;
	 2	 0	 0	 3	 0	 33.485071	 0;
	 2	 0	 0	 3	 0	 42.590342	 0;
	 2	 0	 0	 3	 0	 34.249342	 0;
	 2	 0	 0	 3	 0	 32.015426	 0;
	 2	 0	 0	 3	 0	 18.425556	 0;
	 2	 0	 0	 3	 0	 36.91313	 0;
	 2	 0	 0	 3	 0	 14.511496	 0;
	 2	 0	 0	 3	 0	 25.918622	 0;
	 2	 0	 0	 3	 0	 29.896619	 0;
	 2	 0	 0	 3	 0	 49.083694	 0;
	 2	 0	 0	 3	 0	 47.698576	 0;
	 2	 0	 0	 3	 0	 40.111865	 0;
	 2	 0	 0	 3	 0	 32.725769	 0;
	 2	 0	 0	 3	 0	 51.067509	 0;
	 2	 0	 0	 3	 0	 47.528244	 0;
	 2	 0	 0	 3	 0	 22.781509	 0;
	 2	 0	 0	 3	 0	 28.002652	 0;
	 2	 0	 0	 3	 0	 38.074248	 0;
	 2	 0	 0	 3	 0	 39.334226	 0;
	 2	 0	 0	 3	 0	 14.65281	 0;
	 2	 0	 0	 3	 0	 28.040249	 0;
	 2	 0	 0	 3	 0	 25.375249	 0;
	 2	 0	 0	 3	 0	 35.279958	 0;
	 2	 0	 0	 3	 0	 32.131875	 0;
	 2	 0	 0	 3	 0	 35.843848	 0;
	 2	 0	 0	 3	 0	 54.865461	 0;
	 2	 0	 0	 3	 0	 29.991845	 0;
	 2	 0	 0	 3	 0	 37.747903	 0;
	 2	 0	 0	 3	 0	 34.758111	 0;
	 2	 0	 0	 3	 0	 38.204092	 0;
	 2	 0	 0	 3	 0	 29.258627	 0;
	 2	 0	 0	 3	 0	 39.171958	 0;
	 2	 0	 0	 3	 0	 42.336012	 0;
	 2	 0	 0	 3	 0	 19.837328	 0;
	 2	 0	 0	 3	 0	 25.424689	 0;
	 2	 0	 0	 3	 0	 26.132408	 0;
	 2	 0	 0	 3	 0	 24.683689	 0;
	 2	 0	 0	 3	 0	 23.960574	 0;
	 2	 0	 0	 3	 0	 0.641499	 0;
	 2	 0	 0	 3	 0	 24.03171	 0;
	 2	 0	 0	 3	 0	 29.748419	 0;
	 2	 0	 0	 3	 0	 22.958311	 0;
	 2	 0	 0	 3	 0	 41.365563	 0;
	 2	 0	 0	 3	 0	 41.131977	 0;
	 2	 0	 0	 3	 0	 37.024211	 0;
	 2	 0	 0	 3	 0	 21.316155	 0;
	 2	 0	 0	 3	 0	 33.935614	 0;
	 2	 0	 0	 3	 0	 29.509837	 0;
	 2	 0	 0	 3	 0	 25.106171	 0;
	 2	 0	 0	 3	 0	 48.537675	 0;
	 2	 0	 0	 3	 0	 42.394386	 0;
	 2	 0	 0	 3	 0	 22.2647	 0;
	 2	 0	 0	 3	 0	 50.452214	 0;
	 2	 0	 0	 3	 0	 27.724813	 0;
	 2	 0	 0	 3	 0	 28.895267	 0;
	 2	 0	 0	 3	 0	 9.422919	 0;
	 2	 0	 0	 3	 0	 29.797431	 0;
	 2	 0	 0	 3	 0	 16.266406	 0;
	 2	 0	 0	 3	 0	 43.767993	 0;
	 2	 0	 0	 3	 0	 38.698094	 0;
	 2	 0	 0	 3	 0	 40.200001	 0;
	 2	 0	 0	 3	 0	 20.462684	 0;
	 2	 0	 0	 3	 0	 51.592096	 0;
	 2	 0	 0	 3	 0	 14.272758	 0;
	 2	 0	 0	 3	 0	 130.268893	 0;
	 2	 0	 0	 3	 0	 16.636628	 0;
	 2	 0	 0	 3	 0	 29.433202	 0;
	 2	 0	 0	 3	 0	 17.966132	 0;
	 2	 0	 0	 3	 0	 31.667042	 0;
	 2	 0	 0	 3	 0	 25.692629	 0;
	 2	 0	 0	 3	 0	 34.525701	 0;
	 2	 0	 0	 3	 0	 18.025673	 0;
	 2	 0	 0	 3	 0	 23.791211	 0;
	 2	 0	 0	 3	 0	 45.998865	 0;
	 2	 0	 0	 3	 0	 42.414632	 0;
	 2	 0	 0	 3	 0	 27.061706	 0;
	 2	 0	 0	 3	 0	 29.13056	 0;
	 2	 0	 0	 3	 0	 38.498679	 0;
	 2	 0	 0	 3	 0	 34.106813	 0;
	 2	 0	 0	 3	 0	 39.050068	 0;
	 2	 0	 0	 3	 0	 4.115197	 0;
	 2	 0	 0	 3	 0	 33.060929	 0;
	 2	 0	 0	 3	 0	 21.627867	 0;
	 2	 0	 0	 3	 0	 34.637434	 0;
	 2	 0	 0	 3	 0	 36.835887	 0;
	 2	 0	 0	 3	 0	 26.171523	 0;
	 2	 0	 0	 3	 0	 25.069636	 0;
	 2	 0	 0	 3	 0	 34.842068	 0;
...
];


% -------------------- mpc_regionR2 --------------------

mpc_regionR2.version = '2';
mpc_regionR2.baseMVA = 100.0000;
mpc_regionR2.bus = [
%	bus_i       type        Pd          Qd          Gs          Bs          area        Vm          Va          baseKV      zone        Vmax        Vmin        
	 1	 2	 0	 0	 0	 0	 0	 1	 0	 20	 6	 1.1	 0.9;
	 2	 1	-0	 0	 0	 0	 0	 1	 0	 20	 6	 1.1	 0.9;
	 3	 1	-0	 0	 0	 0	 0	 1	 0	 20	 6	 1.1	 0.9;
	 4	 1	 71.98	 28.8	 0	 11	 0	 1	 0	 220	 6	 1.1	 0.9;
	 5	 1	 176.3	-58.9	 0	 24.77	 0	 1	 0	 380	 6	 1.1	 0.9;
	 6	 2	 0	 0	 0	 0	 0	 1	 0	 20	 6	 1.1	 0.9;
	 7	 2	 0	 0	 0	 0	 0	 1	 0	 20	 6	 1.1	 0.9;
	 8	 2	 0	 0	 0	 0	 0	 1	 0	 20	 6	 1.1	 0.9;
	 9	 1	-0	-0	 0	 66.65	 0	 1	 0	 380	 6	 1.1	 0.9;
	 10	 2	 0	 0	 0	 0	 0	 1	 0	 20	 6	 1.1	 0.9;
	 11	 1	-0	-0	 0	 7.09	 0	 1	 0	 220	 6	 1.1	 0.9;
	 12	 2	 0	 0	 0	 0	 0	 1	 0	 20	 6	 1.1	 0.9;
	 13	 2	 0	 0	 0	 0	 0	 1	 0	 20	 6	 1.1	 0.9;
	 14	 2	 0	 0	 0	 0	 0	 1	 0	 20	 6	 1.1	 0.9;
	 15	 2	 0	 0	 0	 0	 0	 1	 0	 20	 6	 1.1	 0.9;
	 16	 1	-0	 0	 0	 0.14	 0	 1	 0	 220	 6	 1.1	 0.9;
	 17	 1	 35.41	 20.3	 0	 10.07	 0	 1	 0	 220	 6	 1.1	 0.9;
	 18	 1	 10.01	 4	 0	 8.11	 0	 1	 0	 220	 6	 1.1	 0.9;
	 19	 1	 5.01	 2	 0	 0.13	 0	 1	 0	 220	 6	 1.1	 0.9;
	 20	 1	 254.7	 79.4	 0	 9.43	 0	 1	 0	 380	 6	 1.1	 0.9;
	 21	 1	 69.08	 24	 0	 1	 0	 1	 0	 220	 6	 1.1	 0.9;
	 22	 2	 0	 0	 0	 0	 0	 1	 0	 20	 6	 1.1	 0.9;
	 23	 2	 0	 0	 0	 0	 0	 1	 0	 20	 6	 1.1	 0.9;
	 24	 2	 0	 0	 0	 0	 0	 1	 0	 20	 6	 1.1	 0.9;
	 25	 2	 0	 0	 0	 0	 0	 1	 0	 20	 6	 1.1	 0.9;
	 26	 2	 0	 0	 0	 0	 0	 1	 0	 20	 6	 1.1	 0.9;
	 27	 2	 0	 0	 0	 0	 0	 1	 0	 20	 6	 1.1	 0.9;
	 28	 2	 0	 0	 0	 0	 0	 1	 0	 20	 6	 1.1	 0.9;
	 29	 1	 30.03	 14	 0	 0.61	 0	 1	 0	 220	 6	 1.1	 0.9;
	 30	 2	 0	 0	 0	 0	 0	 1	 0	 20	 6	 1.1	 0.9;
	 31	 1	 91.1	 33.5	 0	 1.8	 0	 1	 0	 220	 6	 1.1	 0.9;
	 32	 1	-0	 0	 0	 47.77	 0	 1	 0	 380	 6	 1.1	 0.9;
	 33	 2	 0	 0	 0	 0	 0	 1	 0	 20	 6	 1.1	 0.9;
	 34	 1	-0	 0	 0.466209	 1.440918	 0	 1	 0	 380	 6	 1.1	 0.9;
	 35	 1	 90.4	 15.2	 0	 0.07	 0	 1	 0	 220	 6	 1.1	 0.9;
	 36	 2	 0	 0	 0	 0	 0	 1	 0	 20	 6	 1.1	 0.9;
	 37	 1	-0	-0	 0	 9.58	 0	 1	 0	 220	 6	 1.1	 0.9;
	 38	 1	 0	-0	 0.120942	-0.040706	 0	 1	 0	 220	 6	 1.1	 0.9;
	 39	 1	-0	-0	 0.03986	 2.050105	 0	 1	 0	 220	 6	 1.1	 0.9;
	 40	 1	 0	-0	 0.295925	 2.563236	 0	 1	 0	 380	 6	 1.1	 0.9;
	 41	 1	 0	-0	 0	 2	 0	 1	 0	 220	 6	 1.1	 0.9;
	 42	 1	 51.86	 19.2	 0	 1.07	 0	 1	 0	 220	 6	 1.1	 0.9;
	 43	 1	-0	-0	 0	 1.77	 0	 1	 0	 220	 6	 1.1	 0.9;
	 44	 1	 0	-0	 0	 59.04	 0	 1	 0	 380	 6	 1.1	 0.9;
	 45	 1	 146.9	 60.6	 0	 26.49	 0	 1	 0	 220	 6	 1.1	 0.9;
	 46	 1	 474.3	 203.4	 0	 47.469681	 0	 1	 0	 380	 6	 1.1	 0.9;
	 47	 1	-0	 0	 0.933942	 3.100629	 0	 1	 0	 380	 6	 1.1	 0.9;
	 48	 1	 0	-0	 0	 68.81	 0	 1	 0	 380	 6	 1.1	 0.9;
	 49	 1	-0	-0	 0.239685	 3.640263	 0	 1	 0	 380	 6	 1.1	 0.9;
	 50	 1	 0	-0	 0.540344	-0.140268	 0	 1	 0	 380	 6	 1.1	 0.9;
	 51	 1	 181.5	 21.2	 0	 64.45	 0	 1	 0	 380	 6	 1.1	 0.9;
	 52	 1	 224.9	-32.5	 0	 63.28	 0	 1	 0	 380	 6	 1.1	 0.9;
	 53	 1	-0	-0	 0	 3.47	 0	 1	 0	 220	 6	 1.1	 0.9;
	 54	 1	 0	 0	 0	 50.16	 0	 1	 0	 380	 6	 1.1	 0.9;
	 55	 1	 538.3	 90.8	 0	 21.34	 0	 1	 0	 380	 6	 1.1	 0.9;
	 56	 1	-0	 0	 0.527187	-0.130034	 0	 1	 0	 380	 6	 1.1	 0.9;
	 57	 1	 0	-0	 0	 8.53	 0	 1	 0	 220	 6	 1.1	 0.9;
	 58	 1	-0	-0	 0	 17.6	 0	 1	 0	 220	 6	 1.1	 0.9;
	 59	 2	 0	 0	 0	 0	 0	 1	 0	 20	 6	 1.1	 0.9;
	 60	 1	 339.1	 89	 0	 80.71	 0	 1	 0	 380	 6	 1.1	 0.9;
	 61	 1	 129.5	 51.8	 0	 107.08	 0	 1	 0	 380	 6	 1.1	 0.9;
	 62	 1	 175.2	 82.4	 0	 0.21	 0	 1	 0	 220	 6	 1.1	 0.9;
	 63	 1	 149.8	 63.1	 0	 34.02	 0	 1	 0	 220	 6	 1.1	 0.9;
	 64	 1	 72.18	 31.9	 0	 27.25	 0	 1	 0	 220	 6	 1.1	 0.9;
	 65	 2	 0	 0	 0	 0	 0	 1	 0	 20	 6	 1.1	 0.9;
	 66	 1	 0	-0.1	 0.08029	-0.060218	 0	 1	 0	 220	 6	 1.1	 0.9;
	 67	 2	 0	 0	 0	 0	 0	 1	 0	 20	 6	 1.1	 0.9;
	 68	 2	 0	 0	 0	 0	 0	 1	 0	 20	 6	 1.1	 0.9;
	 69	 2	 0	 0	 0	 0	 0	 1	 0	 20	 6	 1.1	 0.9;
	 70	 1	 23.03	 10.5	 0	 3.96	 0	 1	 0	 220	 6	 1.1	 0.9;
	 71	 1	 34.14	-2.8	 0.239003	 18.790831	 0	 1	 0	 380	 6	 1.1	 0.9;
	 72	 1	-0	-0	 0.198366	-0.008774	 0	 1	 0	 380	 6	 1.1	 0.9;
	 73	 1	 56.46	 22	 0	 41.96	 0	 1	 0	 220	 6	 1.1	 0.9;
	 74	 1	 369.5	 16.7	 0	 10.6	 0	 1	 0	 220	 6	 1.1	 0.9;
	 75	 1	 0	 0	 0	 0.06	 0	 1	 0	 220	 6	 1.1	 0.9;
	 76	 1	-0	-0	 0.361262	 2.649018	 0	 1	 0	 380	 6	 1.1	 0.9;
	 77	 1	 0	 0	 0	 4.29	 0	 1	 0	 380	 6	 1.1	 0.9;
	 78	 2	 0	 0	 0	 0	 0	 1	 0	 20	 6	 1.1	 0.9;
	 79	 1	-0	-0	 0.03986	 2.100105	 0	 1	 0	 220	 6	 1.1	 0.9;
	 80	 1	 297.7	 258.6	 0	 65.78	 0	 1	 0	 380	 6	 1.1	 0.9;
	 81	 2	 0	 0	 0	 0	 0	 1	 0	 20	 6	 1.1	 0.9;
	 82	 2	 0	 0	 0	 0	 0	 1	 0	 20	 6	 1.1	 0.9;
	 83	 2	 0	 0	 0	 0	 0	 1	 0	 20	 6	 1.1	 0.9;
	 84	 1	 156.5	 31.2	 0.536484	 34.842734	 0	 1	 0	 380	 6	 1.1	 0.9;
	 85	 1	 69.08	 24	 0	 4.79	 0	 1	 0	 220	 6	 1.1	 0.9;
	 86	 2	 0	 0	 0	 0	 0	 1	 0	 20	 6	 1.1	 0.9;
	 87	 2	 0	 0	 0	 0	 0	 1	 0	 20	 6	 1.1	 0.9;
	 88	 2	 0	 0	 0	 0	 0	 1	 0	 20	 6	 1.1	 0.9;
	 89	 2	 0	 0	 0	 0	 0	 1	 0	 20	 6	 1.1	 0.9;
	 90	 2	 0	 0	 0	 0	 0	 1	 0	 20	 6	 1.1	 0.9;
	 91	 2	 0	 0	 0	 0	 0	 1	 0	 20	 6	 1.1	 0.9;
	 92	 2	 0	 0	 0	 0	 0	 1	 0	 20	 6	 1.1	 0.9;
	 93	 2	 0	 0	 0	 0	 0	 1	 0	 20	 6	 1.1	 0.9;
	 94	 2	 0	 0	 0	 0	 0	 1	 0	 20	 6	 1.1	 0.9;
	 95	 2	 0	 0	 0	 0	 0	 1	 0	 20	 6	 1.1	 0.9;
	 96	 2	 0	 0	 0	 0	 0	 1	 0	 20	 6	 1.1	 0.9;
	 97	 1	 0	-0	 0	 426.57	 0	 1	 0	 380	 6	 1.1	 0.9;
	 98	 1	-0	-0	 0.471697	 3.616573	 0	 1	 0	 380	 6	 1.1	 0.9;
	 99	 2	 0	 0	 0	 0	 0	 1	 0	 20	 6	 1.1	 0.9;
	 100	 2	 0	 0	 0	 0	 0	 1	 0	 20	 6	 1.1	 0.9;
	 101	 1	 57.56	 24	 0	 1.01	 0	 1	 0	 220	 6	 1.1	 0.9;
	 102	 2	 0	 0	 0	 0	 0	 1	 0	 20	 6	 1.1	 0.9;
	 103	 2	 0	 0	 0	 0	 0	 1	 0	 20	 6	 1.1	 0.9;
	 104	 2	 0	 0	 0	 0	 0	 1	 0	 20	 6	 1.1	 0.9;
	 105	 2	 0	 0	 0	 0	 0	 1	 0	 20	 6	 1.1	 0.9;
	 106	 1	 262.5	 18.9	 0	 39.85	 0	 1	 0	 380	 6	 1.1	 0.9;
	 107	 1	 0	-0	 0.356558	 0.802869	 0	 1	 0	 380	 6	 1.1	 0.9;
	 108	 1	 0	-0	 0.079037	 0.070722	 0	 1	 0	 220	 6	 1.1	 0.9;
	 109	 1	-0	-0	 0	 100.092366	 0	 1	 0	 380	 6	 1.1	 0.9;
	 110	 1	 189.7	 51.99	 0	 30.21	 0	 1	 0	 380	 6	 1.1	 0.9;
	 111	 2	 0	 0	 0	 0	 0	 1	 0	 20	 6	 1.1	 0.9;
	 112	 1	 159.3	 13.5	 0	 62.36	 0	 1	 0	 380	 6	 1.1	 0.9;
	 113	 1	-0	-0	 0	 0.43	 0	 1	 0	 220	 6	 1.1	 0.9;
	 114	 2	 0	 0	 0	 0	 0	 1	 0	 20	 6	 1.1	 0.9;
	 115	 2	 0	 0	 0	 0	 0	 1	 0	 20	 6	 1.1	 0.9;
	 116	 1	 26.83	 13	 0	 0.36	 0	 1	 0	 220	 6	 1.1	 0.9;
	 117	 1	-0	 0	 0	 0.64	 0	 1	 0	 220	 6	 1.1	 0.9;
	 118	 1	-0	-0	 0	 1.57	 0	 1	 0	 220	 6	 1.1	 0.9;
	 119	 1	 115.5	 71.5	 0	 150.47	 0	 1	 0	 380	 6	 1.1	 0.9;
	 120	 1	 136.7	 19.3	 0	 37.5	 0	 1	 0	 380	 6	 1.1	 0.9;
	 121	 2	 0	 0	 0	 0	 0	 1	 0	 20	 6	 1.1	 0.9;
	 122	 2	 0	 0	 0	 0	 0	 1	 0	 20	 6	 1.1	 0.9;
	 123	 2	 0	 0	 0	 0	 0	 1	 0	 20	 6	 1.1	 0.9;
	 124	 2	 0	 0	 0	 0	 0	 1	 0	 20	 6	 1.1	 0.9;
	 125	 2	 0	 0	 0	 0	 0	 1	 0	 20	 6	 1.1	 0.9;
	 126	 1	 75.58	 30.3	 0	 34.66	 0	 1	 0	 220	 6	 1.1	 0.9;
	 127	 1	 104.5	 31.8	 0	 0.71	 0	 1	 0	 220	 6	 1.1	 0.9;
	 128	 2	 0	 0	 0	 0	 0	 1	 0	 20	 6	 1.1	 0.9;
	 129	 2	 0	 0	 0	 0	 0	 1	 0	 20	 6	 1.1	 0.9;
	 130	 2	 0	 0	 0	 0	 0	 1	 0	 20	 6	 1.1	 0.9;
	 131	 2	 0	 0	 0	 0	 0	 1	 0	 20	 6	 1.1	 0.9;
	 132	 1	 0	-0	 0	 3.58	 0	 1	 0	 220	 6	 1.1	 0.9;
	 133	 1	-0	 0	 0.242346	 2.448045	 0	 1	 0	 380	 6	 1.1	 0.9;
	 134	 1	-0	 0	 0	 6.19	 0	 1	 0	 220	 6	 1.1	 0.9;
	 135	 2	 0	 0	 0	 0	 0	 1	 0	 20	 6	 1.1	 0.9;
	 136	 2	 0	 0	 0	 0	 0	 1	 0	 20	 6	 1.1	 0.9;
	 137	 2	 0	 0	 0	 0	 0	 1	 0	 20	 6	 1.1	 0.9;
	 138	 2	 0	 0	 0	 0	 0	 1	 0	 20	 6	 1.1	 0.9;
	 139	 2	 0	 0	 0	 0	 0	 1	 0	 20	 6	 1.1	 0.9;
	 140	 1	-0	-0	 0.236401	-0.027001	 0	 1	 0	 220	 6	 1.1	 0.9;
	 141	 1	 0	-0	 0.081141	 2.229144	 0	 1	 0	 220	 6	 1.1	 0.9;
	 142	 1	 6.01	 3	 0	 0.05	 0	 1	 0	 220	 6	 1.1	 0.9;
	 143	 1	-0	 0	 0	 48.46	 0	 1	 0	 380	 6	 1.1	 0.9;
	 144	 2	 0	 0	 0	 0	 0	 1	 0	 20	 6	 1.1	 0.9;
	 145	 2	 0	 0	 0	 0	 0	 1	 0	 20	 6	 1.1	 0.9;
	 146	 1	 362.2	-10.5	 0	 19.86	 0	 1	 0	 220	 6	 1.1	 0.9;
	 147	 2	 0	 0	 0	 0	 0	 1	 0	 20	 6	 1.1	 0.9;
	 148	 2	 0	 0	 0	 0	 0	 1	 0	 20	 6	 1.1	 0.9;
	 149	 2	 0	 0	 0	 0	 0	 1	 0	 20	 6	 1.1	 0.9;
	 150	 2	 0	 0	 0	 0	 0	 1	 0	 20	 6	 1.1	 0.9;
	 151	 2	 0	 0	 0	 0	 0	 1	 0	 20	 6	 1.1	 0.9;
	 152	 2	 0	 0	 0	 0	 0	 1	 0	 20	 6	 1.1	 0.9;
	 153	 2	 0	 0	 0	 0	 0	 1	 0	 20	 6	 1.1	 0.9;
	 154	 2	 0	 0	 0	 0	 0	 1	 0	 20	 6	 1.1	 0.9;
	 155	 2	 0	 0	 0	 0	 0	 1	 0	 20	 6	 1.1	 0.9;
	 156	 2	 0	 0	 0	 0	 0	 1	 0	 20	 6	 1.1	 0.9;
	 157	 1	-0	-0	 0.473225	 52.235363	 0	 1	 0	 380	 6	 1.1	 0.9;
	 158	 1	 159.9	 10.6	 0	 69.6	 0	 1	 0	 380	 6	 1.1	 0.9;
	 159	 1	 130.1	 19.3	 0	 19.24	 0	 1	 0	 220	 6	 1.1	 0.9;
	 160	 1	-0	-0	 0.117943	 0.021542	 0	 1	 0	 220	 6	 1.1	 0.9;
	 161	 1	 51.26	-17.2	 0	 100.22	 0	 1	 0	 380	 6	 1.1	 0.9;
	 162	 1	 19.62	-3.1	 0	 10.98	 0	 1	 0	 220	 6	 1.1	 0.9;
	 163	 1	-272.2	 6.6	 0	 29.33	 0	 1	 0	 380	 6	 1.1	 0.9;
	 164	 2	 0	 0	 0	 0	 0	 1	 0	 20	 6	 1.1	 0.9;
	 165	 1	 0	-0	 0.079227	 0.08058	 0	 1	 0	 220	 6	 1.1	 0.9;
	 166	 1	 127.8	 37.6	 0.238595	 7.981012	 0	 1	 0	 380	 6	 1.1	 0.9;
	 167	 1	 394.9	-17.3	 0	 30.22	 0	 1	 0	 380	 6	 1.1	 0.9;
	 168	 1	-0	-0	 0	 0.3	 0	 1	 0	 380	 6	 1.1	 0.9;
	 169	 1	 37.24	 40.5	 0	 67.07	 0	 1	 0	 380	 6	 1.1	 0.9;
	 170	 1	 0	-0.1	 0.080273	-0.060205	 0	 1	 0	 220	 6	 1.1	 0.9;
	 171	 1	 195.2	 92.2	 0	 11.67	 0	 1	 0	 220	 6	 1.1	 0.9;
	 172	 1	 225.8	 123	 0.305983	 9.235014	 0	 1	 0	 220	 6	 1.1	 0.9;
	 173	 2	 0	 0	 0	 0	 0	 1	 0	 20	 6	 1.1	 0.9;
	 174	 1	-0	-0	 0	 1.48	 0	 1	 0	 220	 6	 1.1	 0.9;
	 175	 1	 175.2	 70.7	 0	 109.1	 0	 1	 0	 380	 6	 1.1	 0.9;
	 176	 1	-0	-0	 0.349725	 3.347992	 0	 1	 0	 380	 6	 1.1	 0.9;
	 177	 2	 0	 0	 0	 0	 0	 1	 0	 20	 6	 1.1	 0.9;
	 178	 1	 0	 0	 0	 8.45	 0	 1	 0	 220	 6	 1.1	 0.9;
	 179	 1	-0	-0	 0	 31.35	 0	 1	 0	 220	 6	 1.1	 0.9;
	 180	 1	 303.6	 47.5	 0	 14.96	 0	 1	 0	 380	 6	 1.1	 0.9;
	 181	 2	 0	 0	 0	 0	 0	 1	 0	 20	 6	 1.1	 0.9;
	 182	 1	 142.5	 523.5	 0	 34.96	 0	 1	 0	 380	 6	 1.1	 0.9;
	 183	 1	-0	-0	 0	 420.1	 0	 1	 0	 380	 6	 1.1	 0.9;
	 184	 2	 0	 0	 0	 0	 0	 1	 0	 20	 6	 1.1	 0.9;
	 185	 1	-0	-0	 0	 53.24	 0	 1	 0	 220	 6	 1.1	 0.9;
	 186	 1	-0	 0	 0	 0.24	 0	 1	 0	 380	 6	 1.1	 0.9;
	 187	 1	 349.6	 22	 0	 10.29	 0	 1	 0	 380	 6	 1.1	 0.9;
	 188	 1	 101	 20.6	 0	 54.5	 0	 1	 0	 380	 6	 1.1	 0.9;
	 189	 2	 0	 0	 0	 0	 0	 1	 0	 20	 6	 1.1	 0.9;
	 190	 2	 0	 0	 0	 0	 0	 1	 0	 20	 6	 1.1	 0.9;
	 191	 2	 0	 0	 0	 0	 0	 1	 0	 20	 6	 1.1	 0.9;
	 192	 2	 0	 0	 0	 0	 0	 1	 0	 20	 6	 1.1	 0.9;
	 193	 1	-0	-0	 0.20225	 3.148312	 0	 1	 0	 220	 6	 1.1	 0.9;
	 194	 2	 0	 0	 0	 0	 0	 1	 0	 20	 6	 1.1	 0.9;
	 195	 1	 47.95	 16.3	 0	 3.46	 0	 1	 0	 220	 6	 1.1	 0.9;
	 196	 1	-0	 0	 0	 1.69	 0	 1	 0	 380	 6	 1.1	 0.9;
	 197	 1	 0	-0	 0.304942	 0.015882	 0	 1	 0	 220	 6	 1.1	 0.9;
	 198	 2	 0	 0	 0	 0	 0	 1	 0	 20	 6	 1.1	 0.9;
	 199	 2	 0	 0	 0	 0	 0	 1	 0	 20	 6	 1.1	 0.9;
	 200	 2	 0	 0	 0	 0	 0	 1	 0	 20	 6	 1.1	 0.9;
...
];

mpc_regionR2.gen = [
%	bus         Pg          Qg          Qmax        Qmin        Vg          mBase       status      Pmax        Pmin        Pc1         Pc2         Qc1min      Qc1max      Qc2min      Qc2max      ramp_agc    ramp_10     ramp_30     ramp_q      apf         
	 1	 250	 30	 80	-20	 1	 100	 1	 400	 100;
	 6	 66.445	 15	 40	-10	 1	 100	 1	 100	 32.89;
	 7	 66.445	 15	 40	-10	 1	 100	 1	 100	 32.89;
	 8	 66.445	 15	 40	-10	 1	 100	 1	 100	 32.89;
	 10	 250	 80	 210	-50	 1	 100	 1	 400	 100;
	 12	 129.735	 20	 60	-20	 1	 100	 1	 200	 59.47;
	 13	 129.735	 20	 60	-20	 1	 100	 1	 200	 59.47;
	 14	 129.735	 20	 60	-20	 1	 100	 1	 200	 59.47;
	 15	 129.735	 20	 60	-20	 1	 100	 1	 200	 59.47;
	 22	 130.8	 20	 60	-20	 1	 100	 1	 200	 61.6;
	 23	 122.965	 20	 60	-20	 1	 100	 1	 200	 45.93;
	 24	 132.82	 20	 60	-20	 1	 100	 1	 200	 65.64;
	 25	 132.82	 20	 60	-20	 1	 100	 1	 200	 65.64;
	 26	 132.82	 20	 60	-20	 1	 100	 1	 200	 65.64;
	 27	 132.82	 20	 60	-20	 1	 100	 1	 200	 65.64;
	 28	 126.125	 20	 60	-20	 1	 100	 1	 200	 52.25;
	 30	 350	 60	 160	-40	 1	 100	 1	 600	 100;
	 33	 300	 60	 160	-40	 1	 100	 1	 500	 100;
	 36	 300	 60	 160	-40	 1	 100	 1	 500	 100;
	 59	 250	 80	 210	-50	 1	 100	 1	 400	 100;
	 65	 300	 60	 160	-40	 1	 100	 1	 500	 100;
	 67	 131.58	 20	 60	-20	 1	 100	 1	 200	 63.16;
	 68	 131.58	 20	 60	-20	 1	 100	 1	 200	 63.16;
	 69	 131.58	 20	 60	-20	 1	 100	 1	 200	 63.16;
	 78	 350	 80	 210	-50	 1	 100	 1	 600	 100;
	 81	 131.58	 20	 60	-20	 1	 100	 1	 200	 63.16;
	 82	 131.58	 20	 60	-20	 1	 100	 1	 200	 63.16;
	 83	 131.58	 20	 60	-20	 1	 100	 1	 200	 63.16;
	 86	 120.025	 20	 60	-20	 1	 100	 1	 200	 40.05;
	 87	 120.025	 20	 60	-20	 1	 100	 1	 200	 40.05;
	 88	 120.025	 20	 60	-20	 1	 100	 1	 200	 40.05;
	 89	 120.025	 20	 60	-20	 1	 100	 1	 200	 40.05;
	 90	 120.025	 20	 60	-20	 1	 100	 1	 200	 40.05;
	 91	 120.025	 20	 60	-20	 1	 100	 1	 200	 40.05;
	 92	 120.025	 20	 60	-20	 1	 100	 1	 200	 40.05;
	 93	 128.87	 20	 60	-20	 1	 100	 1	 200	 57.74;
	 94	 128.87	 20	 60	-20	 1	 100	 1	 200	 57.74;
	 95	 128.87	 20	 60	-20	 1	 100	 1	 200	 57.74;
	 96	 127.005	 20	 60	-20	 1	 100	 1	 200	 54.01;
	 99	 129.065	 20	 60	-20	 1	 100	 1	 200	 58.13;
	 100	 129.065	 20	 60	-20	 1	 100	 1	 200	 58.13;
	 102	 65.98	 15	 40	-10	 1	 100	 1	 100	 31.96;
	 103	 65.98	 15	 40	-10	 1	 100	 1	 100	 31.96;
	 104	 65.98	 15	 40	-10	 1	 100	 1	 100	 31.96;
	 105	 65.98	 15	 40	-10	 1	 100	 1	 100	 31.96;
	 111	 66.445	 15	 40	-10	 1	 100	 1	 100	 32.89;
	 114	 130.445	 20	 60	-20	 1	 100	 1	 200	 60.89;
	 115	 130.445	 20	 60	-20	 1	 100	 1	 200	 60.89;
	 121	 130.8	 20	 60	-20	 1	 100	 1	 200	 61.6;
	 122	 126.125	 20	 60	-20	 1	 100	 1	 200	 52.25;
	 123	 126.125	 20	 60	-20	 1	 100	 1	 200	 52.25;
	 124	 126.125	 20	 60	-20	 1	 100	 1	 200	 52.25;
	 125	 126.125	 20	 60	-20	 1	 100	 1	 200	 52.25;
	 128	 300	 60	 160	-40	 1	 100	 1	 500	 100;
	 129	 300	 60	 160	-40	 1	 100	 1	 500	 100;
	 130	 300	 60	 160	-40	 1	 100	 1	 500	 100;
	 131	 300	 60	 160	-40	 1	 100	 1	 500	 100;
	 135	 450	 80	 210	-50	 1	 100	 1	 700	 200;
	 136	 450	 80	 210	-50	 1	 100	 1	 700	 200;
	 137	 119.195	 15	 40	-10	 1	 100	 1	 200	 38.39;
	 138	 119.195	 15	 40	-10	 1	 100	 1	 200	 38.39;
	 139	 132.82	 20	 60	-20	 1	 100	 1	 200	 65.64;
	 144	 450	 80	 210	-50	 1	 100	 1	 700	 200;
	 145	 450	 80	 210	-50	 1	 100	 1	 700	 200;
	 147	 63.295	 15	 40	-10	 1	 100	 1	 100	 26.59;
	 148	 63.295	 15	 40	-10	 1	 100	 1	 100	 26.59;
	 149	 63.295	 15	 40	-10	 1	 100	 1	 100	 26.59;
	 150	 63.295	 15	 40	-10	 1	 100	 1	 100	 26.59;
	 151	 119.195	 15	 40	-10	 1	 100	 1	 200	 38.39;
	 152	 127.965	 20	 60	-20	 1	 100	 1	 200	 55.93;
	 153	 127.965	 20	 60	-20	 1	 100	 1	 200	 55.93;
	 154	 127.965	 20	 60	-20	 1	 100	 1	 200	 55.93;
	 155	 127.965	 20	 60	-20	 1	 100	 1	 200	 55.93;
	 156	 119.195	 15	 40	-10	 1	 100	 1	 200	 38.39;
	 164	 117.355	 15	 40	-10	 1	 100	 1	 200	 34.71;
	 173	 121.24	 15	 40	-10	 1	 100	 1	 200	 42.48;
	 177	 350	 80	 210	-50	 1	 100	 1	 600	 100;
	 181	 120.025	 20	 60	-20	 1	 100	 1	 200	 40.05;
	 184	 65.98	 15	 40	-10	 1	 100	 1	 100	 31.96;
	 189	 66.445	 15	 40	-10	 1	 100	 1	 100	 32.89;
	 190	 66.445	 15	 40	-10	 1	 100	 1	 100	 32.89;
	 191	 66.445	 15	 40	-10	 1	 100	 1	 100	 32.89;
	 192	 116.78	 15	 40	-10	 1	 100	 1	 200	 33.56;
	 194	 116.78	 15	 40	-10	 1	 100	 1	 200	 33.56;
	 198	 128.87	 20	 60	-20	 1	 100	 1	 200	 57.74;
	 199	 131.67	 20	 60	-20	 1	 100	 1	 200	 63.34;
	 200	 131.67	 20	 60	-20	 1	 100	 1	 200	 63.34;
	 201	 131.67	 20	 60	-20	 1	 100	 1	 200	 63.34;
	 203	 300	 60	 160	-40	 1	 100	 1	 500	 100;
	 205	 300	 60	 160	-40	 1	 100	 1	 500	 100;
	 216	 116.78	 15	 40	-10	 1	 100	 1	 200	 33.56;
	 225	 129.62	 20	 60	-20	 1	 100	 1	 200	 59.24;
	 226	 129.62	 20	 60	-20	 1	 100	 1	 200	 59.24;
	 227	 129.62	 20	 60	-20	 1	 100	 1	 200	 59.24;
	 233	 129.62	 20	 60	-20	 1	 100	 1	 200	 59.24;
	 237	 350	 80	 210	-50	 1	 100	 1	 600	 100;
	 238	 350	 80	 210	-50	 1	 100	 1	 600	 100;
	 240	 122.105	 20	 60	-20	 1	 100	 1	 200	 44.21;
	 241	 122.105	 20	 60	-20	 1	 100	 1	 200	 44.21;
	 242	 122.105	 20	 60	-20	 1	 100	 1	 200	 44.21;
	 243	 122.105	 20	 60	-20	 1	 100	 1	 200	 44.21;
	 247	 117.355	 15	 40	-10	 1	 100	 1	 200	 34.71;
	 251	 450	 80	 210	-50	 1	 100	 1	 700	 200;
	 252	 450	 80	 210	-50	 1	 100	 1	 700	 200;
	 258	 119.495	 15	 40	-10	 1	 100	 1	 200	 38.99;
	 259	 119.495	 15	 40	-10	 1	 100	 1	 200	 38.99;
	 269	 118.355	 15	 40	-10	 1	 100	 1	 200	 36.71;
	 270	 118.355	 15	 40	-10	 1	 100	 1	 200	 36.71;
	 274	 127.005	 20	 60	-20	 1	 100	 1	 200	 54.01;
	 275	 127.005	 20	 60	-20	 1	 100	 1	 200	 54.01;
	 276	 127.005	 20	 60	-20	 1	 100	 1	 200	 54.01;
	 282	 64.695	 15	 40	-10	 1	 100	 1	 100	 29.39;
	 283	 64.695	 15	 40	-10	 1	 100	 1	 100	 29.39;
	 284	 130.8	 20	 60	-20	 1	 100	 1	 200	 61.6;
	 285	 130.8	 20	 60	-20	 1	 100	 1	 200	 61.6;
	 286	 130.8	 20	 60	-20	 1	 100	 1	 200	 61.6;
	 292	 122.105	 20	 60	-20	 1	 100	 1	 200	 44.21;
	 297	 130.445	 20	 60	-20	 1	 100	 1	 200	 60.89;
	 299	 350	 60	 160	-40	 1	 100	 1	 600	 100;
	 301	 129.065	 20	 60	-20	 1	 100	 1	 200	 58.13;
	 303	 450	 80	 210	-50	 1	 100	 1	 700	 200;
	 304	 450	 80	 210	-50	 1	 100	 1	 700	 200;
	 308	 63.215	 15	 40	-10	 1	 100	 1	 100	 26.43;
	 310	 63.215	 15	 40	-10	 1	 100	 1	 100	 26.43;
	 311	 122.965	 20	 60	-20	 1	 100	 1	 200	 45.93;
	 312	 122.965	 20	 60	-20	 1	 100	 1	 200	 45.93;
	 313	 122.965	 20	 60	-20	 1	 100	 1	 200	 45.93;
	 314	 122.965	 20	 60	-20	 1	 100	 1	 200	 45.93;
	 318	 300	 60	 160	-40	 1	 100	 1	 500	 100;
	 319	 300	 60	 160	-40	 1	 100	 1	 500	 100;
	 320	 300	 60	 160	-40	 1	 100	 1	 500	 100;
	 321	 300	 60	 160	-40	 1	 100	 1	 500	 100;
	 322	 300	 60	 160	-40	 1	 100	 1	 500	 100;
	 323	 300	 60	 160	-40	 1	 100	 1	 500	 100;
	 327	 119.035	 20	 60	-20	 1	 100	 1	 200	 38.07;
	 328	 119.035	 20	 60	-20	 1	 100	 1	 200	 38.07;
	 329	 119.035	 20	 60	-20	 1	 100	 1	 200	 38.07;
	 330	 119.035	 20	 60	-20	 1	 100	 1	 200	 38.07;
	 331	 119.035	 20	 60	-20	 1	 100	 1	 200	 38.07;
	 333	 300	 60	 160	-40	 1	 100	 1	 500	 100;
	 334	 300	 60	 160	-40	 1	 100	 1	 500	 100;
	 335	 300	 60	 160	-40	 1	 100	 1	 500	 100;
	 337	 119.005	 15	 40	-10	 1	 100	 1	 200	 38.01;
	 338	 119.005	 15	 40	-10	 1	 100	 1	 200	 38.01;
	 339	 119.005	 15	 40	-10	 1	 100	 1	 200	 38.01;
...